
     RDKit          3D

  0  0  0  0  0  0  0  0  0  0999 V3000
M  V30 BEGIN CTAB
M  V30 COUNTS 22 22 0 0 0
M  V30 BEGIN ATOM
M  V30 1 C -0.2222 -0.6743 74.4672 0
M  V30 2 H -1.2978 -0.5245 74.5704 0
M  V30 3 C 0.4891 0.6869 74.4408 0
M  V30 4 H 0.0962 -1.2442 75.3409 0
M  V30 5 H 0.2363 1.2602 75.3334 0
M  V30 6 C 0.1119 1.4813 73.1818 0
M  V30 7 H 1.5695 0.5370 74.4660 0
M  V30 8 H -0.9447 1.7480 73.2242 0
M  V30 9 C 0.4059 0.6805 71.9024 0
M  V30 10 H 0.6655 2.4208 73.1643 0
M  V30 11 C -0.3198 -0.6759 71.9285 0
M  V30 12 H 1.4827 0.5029 71.8623 0
M  V30 13 C 0.0678 -1.4715 73.1863 0
M  V30 14 H -1.3964 -0.4990 71.9696 0
M  V30 15 H 1.1292 -1.7228 73.1504 0
M  V30 16 H -0.4725 -2.4181 73.2177 0
M  V30 17 N -0.0000 1.4302 70.7107 0
M  V30 18 N 0.0000 -1.4302 70.7107 0
M  V30 19 H 0.3733 0.9519 69.8925 0
M  V30 20 H -1.0136 1.4222 70.6232 0
M  V30 21 H -0.4549 -2.3417 70.7245 0
M  V30 22 H -0.3523 -0.9377 69.8935 0
M  V30 END ATOM
M  V30 BEGIN BOND
M  V30 0 1 1 2
M  V30 1 1 1 3
M  V30 2 1 1 4
M  V30 3 1 1 13
M  V30 4 1 3 5
M  V30 5 1 3 6
M  V30 6 1 3 7
M  V30 7 1 6 8
M  V30 8 1 6 9
M  V30 9 1 6 10
M  V30 10 1 9 11
M  V30 11 1 9 12
M  V30 12 1 9 17
M  V30 13 1 11 14
M  V30 14 1 11 13
M  V30 15 1 11 18
M  V30 16 1 13 15
M  V30 17 1 13 16
M  V30 18 1 17 19
M  V30 19 1 17 20
M  V30 20 1 18 21
M  V30 21 1 18 22
M  V30 END BOND
M  V30 END CTAB
M  END

$$$$
