
     RDKit          3D

  0  0  0  0  0  0  0  0  0  0999 V3000
M  V30 BEGIN CTAB
M  V30 COUNTS 26 27 0 0 0
M  V30 BEGIN ATOM
M  V30 1 N 1.3620 1.5220 4.7960 0
M  V30 2 C 0.8860 1.3970 3.5500 0
M  V30 3 C 0.0620 0.2720 3.1960 0
M  V30 4 C -0.3600 0.1190 1.8970 0
M  V30 5 C 0.0040 1.0550 0.9010 0
M  V30 6 C -0.4220 0.8550 -0.4760 0
M  V30 7 C -1.7730 0.6290 -0.7710 0
M  V30 8 C -2.1930 0.4720 -2.0800 0
M  V30 9 C -1.2510 0.5170 -3.1280 0
M  V30 10 N -1.6550 0.2820 -4.4380 0
M  V30 11 C 0.1150 0.7120 -2.8330 0
M  V30 12 C 0.5150 0.8880 -1.5190 0
M  V30 13 C 0.7770 2.1840 1.2510 0
M  V30 14 C 1.2000 2.3760 2.5450 0
M  V30 15 H 1.1690 0.8410 5.5230 0
M  V30 16 H 1.9510 2.3000 5.0790 0
M  V30 17 H -0.2170 -0.4490 3.9700 0
M  V30 18 H -0.9720 -0.7460 1.6180 0
M  V30 19 H -2.5020 0.5960 0.0450 0
M  V30 20 H -3.2480 0.3160 -2.3020 0
M  V30 21 H -2.6320 0.4290 -4.6570 0
M  V30 22 H -1.0410 0.5960 -5.1780 0
M  V30 23 H 0.8500 0.7240 -3.6350 0
M  V30 24 H 1.5730 1.0420 -1.2880 0
M  V30 25 H 1.0300 2.9190 0.4780 0
M  V30 26 H 1.7730 3.2650 2.8280 0
M  V30 END ATOM
M  V30 BEGIN BOND
M  V30 0 1 2 1
M  V30 1 1 3 2
M  V30 2 1 4 3
M  V30 3 1 5 4
M  V30 4 1 6 5
M  V30 5 1 7 6
M  V30 6 1 8 7
M  V30 7 1 9 8
M  V30 8 1 10 9
M  V30 9 1 11 9
M  V30 10 1 12 11
M  V30 11 1 12 6
M  V30 12 1 13 5
M  V30 13 1 14 13
M  V30 14 1 14 2
M  V30 15 1 15 1
M  V30 16 1 16 1
M  V30 17 1 17 3
M  V30 18 1 18 4
M  V30 19 1 19 7
M  V30 20 1 20 8
M  V30 21 1 21 10
M  V30 22 1 22 10
M  V30 23 1 23 11
M  V30 24 1 24 12
M  V30 25 1 25 13
M  V30 26 1 26 14
M  V30 END BOND
M  V30 END CTAB
M  END

$$$$
