/home/lukas/Desktop/db_new/amines3f/amine3f_50.pdb
 OpenBabel08101621373D

  0  0  0     0  0            999 V3000
M  V30 BEGIN CTAB
M  V30 COUNTS 14 13 0 0 0
M  V30 BEGIN ATOM
M  V30 1 N -0.033 -0.295 -0.559 0
M  V30 2 C -0.019 0.763 0.35 0
M  V30 3 N 0.774 1.809 -0.085 0
M  V30 4 N -0.618 0.852 1.454 0
M  V30 5 C -1.433 -0.124 1.969 0
M  V30 6 N -1.218 -0.654 3.176 0
M  V30 7 N -2.428 -0.439 1.302 0
M  V30 8 H 0.456 -0.277 -1.434 0
M  V30 9 H -0.601 -1.107 -0.37 0
M  V30 10 H 1.273 1.803 -0.953 0
M  V30 11 H 0.854 2.631 0.488 0
M  V30 12 H -2.022 -1.117 3.555 0
M  V30 13 H -0.602 -0.115 3.754 0
M  V30 14 H -2.356 0.187 0.517 0
M  V30 END ATOM
M  V30 BEGIN BOND
M  V30 1 1 1 2
M  V30 2 1 1 8
M  V30 3 1 1 9
M  V30 4 1 2 3
M  V30 5 2 2 4
M  V30 6 1 3 10
M  V30 7 1 3 11
M  V30 8 1 4 5
M  V30 9 1 5 6
M  V30 10 2 5 7
M  V30 11 1 6 12
M  V30 12 1 6 13
M  V30 13 1 7 14
M  V30 END BOND
M  V30 END CTAB
M  END
