/home/lukas/Desktop/db_new/amines3f/amine3f_53.pdb
 OpenBabel08101621373D

  0  0  0     0  0            999 V3000
M  V30 BEGIN CTAB
M  V30 COUNTS 18 17 0 0 1
M  V30 BEGIN ATOM
M  V30 1 C 0.382 -0.644 -0.668 0
M  V30 2 N 0.387 0.316 -1.814 0
M  V30 3 C -0.266 -0.015 0.596 0
M  V30 4 C -1.735 0.389 0.433 0
M  V30 5 N -2.668 -0.396 0.959 0
M  V30 6 O -2.028 1.406 -0.183 0
M  V30 7 C -0.239 -2.035 -1.05 0
M  V30 8 N -0.443 -2.308 -2.33 0
M  V30 9 O -0.52 -2.852 -0.18 0
M  V30 10 H 1.414 -0.89 -0.408 0
M  V30 11 H -0.469 0.869 -1.765 0
M  V30 12 H 1.126 0.999 -1.715 0
M  V30 13 H 0.289 0.878 0.884 0
M  V30 14 H -0.172 -0.697 1.442 0
M  V30 15 H -3.636 -0.139 0.847 0
M  V30 16 H -2.422 -1.275 1.392 0
M  V30 17 H -0.219 -1.572 -2.983 0
M  V30 18 H -0.84 -3.191 -2.596 0
M  V30 END ATOM
M  V30 BEGIN BOND
M  V30 1 1 1 2
M  V30 2 1 1 3
M  V30 3 1 1 7
M  V30 4 1 1 10
M  V30 5 1 2 11
M  V30 6 1 2 12
M  V30 7 1 3 4
M  V30 8 1 3 13
M  V30 9 1 3 14
M  V30 10 1 4 5
M  V30 11 2 4 6
M  V30 12 1 5 15
M  V30 13 1 5 16
M  V30 14 1 7 8
M  V30 15 2 7 9
M  V30 16 1 8 17
M  V30 17 1 8 18
M  V30 END BOND
M  V30 END CTAB
M  END
