/home/lukas/Desktop/db_new/amines3f/amine3f_51.pdb
 OpenBabel08101621243D

  0  0  0     0  0            999 V3000
M  V30 BEGIN CTAB
M  V30 COUNTS 24 24 0 0 1
M  V30 BEGIN ATOM
M  V30 1 N 2.409 -1.334 -1.161 0
M  V30 2 C 1.036 -1.495 -0.722 0
M  V30 3 C 0.938 -2.313 0.592 0
M  V30 4 C 0.802 -1.475 1.891 0
M  V30 5 N -0.571 -1.406 2.359 0
M  V30 6 C 1.423 -0.073 1.726 0
M  V30 7 C 0.8 0.748 0.571 0
M  V30 8 N 1.68 1.812 0.128 0
M  V30 9 C 0.299 -0.146 -0.593 0
M  V30 10 H 2.435 -0.792 -2.011 0
M  V30 11 H 2.902 -0.804 -0.457 0
M  V30 12 H 0.551 -2.075 -1.509 0
M  V30 13 H 0.094 -2.998 0.51 0
M  V30 14 H 1.808 -2.967 0.676 0
M  V30 15 H 1.351 -1.994 2.68 0
M  V30 16 H -0.912 -2.331 2.577 0
M  V30 17 H -0.617 -0.872 3.215 0
M  V30 18 H 1.358 0.492 2.655 0
M  V30 19 H 2.491 -0.2 1.55 0
M  V30 20 H -0.078 1.254 0.977 0
M  V30 21 H 1.182 2.414 -0.513 0
M  V30 22 H 2.454 1.428 -0.391 0
M  V30 23 H 0.289 0.389 -1.542 0
M  V30 24 H -0.749 -0.379 -0.396 0
M  V30 END ATOM
M  V30 BEGIN BOND
M  V30 1 1 1 2
M  V30 2 1 1 10
M  V30 3 1 1 11
M  V30 4 1 2 3
M  V30 5 1 2 9
M  V30 6 1 2 12
M  V30 7 1 3 4
M  V30 8 1 3 13
M  V30 9 1 3 14
M  V30 10 1 4 5
M  V30 11 1 4 6
M  V30 12 1 4 15
M  V30 13 1 5 16
M  V30 14 1 5 17
M  V30 15 1 6 7
M  V30 16 1 6 18
M  V30 17 1 6 19
M  V30 18 1 7 8
M  V30 19 1 7 9
M  V30 20 1 7 20
M  V30 21 1 8 21
M  V30 22 1 8 22
M  V30 23 1 9 23
M  V30 24 1 9 24
M  V30 END BOND
M  V30 END CTAB
M  END
