
     RDKit          3D

  0  0  0  0  0  0  0  0  0  0999 V3000
M  V30 BEGIN CTAB
M  V30 COUNTS 168 180 0 0 0
M  V30 BEGIN ATOM
M  V30 1 C 5.2145 2.3337 -1.0298 0
M  V30 2 C 4.5436 1.1597 -1.9499 0
M  V30 3 C 3.5321 1.4822 -3.1371 0
M  V30 4 C 2.9408 0.3059 -4.0143 0
M  V30 5 C 1.8718 0.6080 -5.2511 0
M  V30 6 C 3.3902 -1.1879 -3.6852 0
M  V30 7 C 4.3707 -1.4803 -2.5220 0
M  V30 8 C 4.8075 -2.9351 -2.1690 0
M  V30 9 C 4.9291 -0.3062 -1.6691 0
M  V30 10 H 5.8320 1.9546 -0.1923 0
M  V30 11 H 3.2506 2.5137 -3.3416 0
M  V30 12 H 1.5534 1.6579 -5.3649 0
M  V30 13 H 2.9846 -2.0256 -4.2874 0
M  V30 14 H 5.5848 -3.3469 -2.7695 0
M  V30 15 H 5.6214 -0.5291 -0.8446 0
M  V30 16 C -4.9475 -2.5007 -0.9487 0
M  V30 17 C -4.3851 -1.1520 -1.7137 0
M  V30 18 C -3.5368 -1.2576 -3.0551 0
M  V30 19 C -3.0034 0.0463 -3.7817 0
M  V30 20 C -2.1081 -0.0583 -5.1739 0
M  V30 21 C -3.3449 1.4369 -3.1694 0
M  V30 22 C -4.2066 1.5447 -1.8415 0
M  V30 23 C -4.6307 2.9661 -1.2228 0
M  V30 24 C -4.6954 0.2340 -1.1324 0
M  V30 25 H -5.4418 -2.3187 0.0193 0
M  V30 26 H -3.3034 -2.2651 -3.4889 0
M  V30 27 H -1.6536 0.8366 -5.4801 0
M  V30 28 H -3.0027 2.3508 -3.6585 0
M  V30 29 H -5.1024 2.8985 -0.3063 0
M  V30 30 H -5.2827 0.3064 -0.2215 0
M  V30 31 C -0.0516 1.9044 5.1560 0
M  V30 32 C -0.0655 2.8804 3.8418 0
M  V30 33 C -1.4319 3.3054 3.2197 0
M  V30 34 C -1.4882 4.2460 1.9619 0
M  V30 35 C -2.8867 4.7267 1.3301 0
M  V30 36 C -0.1692 4.7509 1.3228 0
M  V30 37 C 1.2081 4.3750 1.9011 0
M  V30 38 C 2.5437 4.9979 1.1982 0
M  V30 39 C 1.2787 3.4267 3.1787 0
M  V30 40 H -0.9859 1.5477 5.4269 0
M  V30 41 H -2.3731 2.9505 3.6643 0
M  V30 42 H -2.7883 5.2356 0.4376 0
M  V30 43 H -0.2150 5.4038 0.4522 0
M  V30 44 H 2.3366 5.6190 0.3109 0
M  V30 45 H 2.2633 3.1447 3.6107 0
M  V30 46 C 2.6965 -4.7326 1.4764 0
M  V30 47 C 1.3031 -4.2573 2.1078 0
M  V30 48 C -0.0101 -4.7251 1.4502 0
M  V30 49 C -1.4001 -4.2660 1.9775 0
M  V30 50 C -2.7760 -4.8093 1.2319 0
M  V30 51 C -1.4635 -3.2907 3.2195 0
M  V30 52 C -0.1149 -2.7987 3.9189 0
M  V30 53 C -0.1280 -1.7999 5.2115 0
M  V30 54 C 1.2501 -3.2969 3.3487 0
M  V30 55 H 2.6046 -5.1594 0.5407 0
M  V30 56 H 0.0274 -5.4034 0.5731 0
M  V30 57 H -3.6618 -4.3087 1.4907 0
M  V30 58 H -2.4199 -2.9547 3.6080 0
M  V30 59 H 0.8162 -1.4726 5.5063 0
M  V30 60 H 2.1963 -2.9674 3.8098 0
M  V30 61 C 0.1515 0.4415 -9.9230 0
M  V30 62 H -0.2765 1.4625 -9.8354 0
M  V30 63 C -1.0904 -0.6907 -9.9960 0
M  V30 64 H 0.7270 0.4210 -10.8720 0
M  V30 65 H -1.7735 -0.4429 -10.8329 0
M  V30 66 C -1.9418 -0.7679 -8.5802 0
M  V30 67 H -0.6638 -1.6963 -10.2230 0
M  V30 68 H -2.4647 0.1750 -8.4202 0
M  V30 69 C -0.9805 -1.0801 -7.3195 0
M  V30 70 H -2.7168 -1.5456 -8.6507 0
M  V30 71 C 0.3656 0.1369 -7.2382 0
M  V30 72 H -0.5169 -2.0799 -7.4648 0
M  V30 73 C 1.1654 0.1560 -8.6454 0
M  V30 74 H -0.0674 1.1607 -7.0691 0
M  V30 75 H 1.6734 -0.8136 -8.7963 0
M  V30 76 H 1.9512 0.9160 -8.6129 0
M  V30 77 N -2.0117 -1.1357 -5.8309 0
M  V30 78 N 1.4694 -0.3213 -6.0118 0
M  V30 79 C 6.9691 7.4520 0.8539 0
M  V30 80 H 6.5251 8.1335 0.0941 0
M  V30 81 C 7.9839 6.3911 0.1143 0
M  V30 82 H 7.5386 8.0931 1.5580 0
M  V30 83 H 8.7557 6.9422 -0.4619 0
M  V30 84 C 7.1507 5.3621 -0.8879 0
M  V30 85 H 8.5284 5.7972 0.8844 0
M  V30 86 H 6.7171 5.9306 -1.7226 0
M  V30 87 C 5.9674 4.5768 -0.0841 0
M  V30 88 H 7.8376 4.6377 -1.3313 0
M  V30 89 C 4.9316 5.6670 0.6694 0
M  V30 90 H 6.4557 3.9314 0.7299 0
M  V30 91 C 5.7550 6.6585 1.6620 0
M  V30 92 H 4.4411 6.3082 -0.1452 0
M  V30 93 H 6.1851 6.0735 2.4912 0
M  V30 94 H 5.0731 7.3833 2.1156 0
M  V30 95 N 5.0679 3.5723 -1.2474 0
M  V30 96 N 3.7214 4.8065 1.6202 0
M  V30 97 C 7.1801 -7.0133 0.6296 0
M  V30 98 H 8.0199 -6.3070 0.8113 0
M  V30 99 C 6.8510 -7.0806 -1.0310 0
M  V30 100 H 7.5222 -8.0070 0.9826 0
M  V30 101 H 7.7719 -7.3585 -1.5848 0
M  V30 102 C 6.2653 -5.6412 -1.5965 0
M  V30 103 H 6.1070 -7.8856 -1.2306 0
M  V30 104 H 7.0440 -4.8743 -1.5132 0
M  V30 105 C 4.9029 -5.1774 -0.7351 0
M  V30 106 H 6.0223 -5.7300 -2.6617 0
M  V30 107 C 5.2800 -5.1205 1.0273 0
M  V30 108 H 4.1220 -5.9326 -0.9049 0
M  V30 109 C 5.8294 -6.5195 1.5282 0
M  V30 110 H 6.0696 -4.3600 1.1726 0
M  V30 111 H 5.0397 -7.2730 1.4473 0
M  V30 112 H 6.0916 -6.4569 2.5924 0
M  V30 113 N 4.2592 -3.5471 -1.2084 0
M  V30 114 N 3.8151 -4.6175 2.0609 0
M  V30 115 C -6.8997 7.4721 -0.8067 0
M  V30 116 H -6.1495 8.2939 -0.8341 0
M  V30 117 C -7.2960 7.1123 0.8157 0
M  V30 118 H -7.8014 7.8508 -1.3321 0
M  V30 119 H -7.6459 8.0342 1.3253 0
M  V30 120 C -6.0040 6.4585 1.6465 0
M  V30 121 H -8.1478 6.3949 0.8413 0
M  V30 122 H -5.2089 7.2066 1.7306 0
M  V30 123 C -5.4534 5.1650 0.9282 0
M  V30 124 H -6.3051 6.2069 2.6753 0
M  V30 125 C -5.0254 5.5559 -0.8756 0
M  V30 126 H -6.2512 4.3999 0.9337 0
M  V30 127 C -6.2897 6.1430 -1.6119 0
M  V30 128 H -4.2355 6.3245 -0.8843 0
M  V30 129 H -7.0675 5.3734 -1.6832 0
M  V30 130 H -6.0249 6.4153 -2.6447 0
M  V30 131 N -4.0123 4.5258 1.8763 0
M  V30 132 N -4.4308 4.0743 -1.8044 0
M  V30 133 C -7.4441 -6.7903 -0.3839 0
M  V30 134 H -7.7569 -6.4957 0.6398 0
M  V30 135 C -6.3213 -8.0279 -0.2962 0
M  V30 136 H -8.3574 -7.1520 -0.9011 0
M  V30 137 H -6.7415 -8.8769 0.2799 0
M  V30 138 C -4.9000 -7.5225 0.3956 0
M  V30 139 H -6.1131 -8.4141 -1.3227 0
M  V30 140 H -5.0745 -7.2636 1.4412 0
M  V30 141 C -4.2806 -6.2541 -0.3840 0
M  V30 142 H -4.1714 -8.3447 0.3963 0
M  V30 143 C -5.4744 -4.9340 -0.4803 0
M  V30 144 H -4.0415 -6.5615 -1.4279 0
M  V30 145 C -6.8312 -5.4673 -1.1777 0
M  V30 146 H -5.7307 -4.5915 0.5656 0
M  V30 147 H -6.6259 -5.7362 -2.2316 0
M  V30 148 H -7.5746 -4.6672 -1.2017 0
M  V30 149 N -2.7390 -5.7856 0.4247 0
M  V30 150 N -4.8321 -3.6583 -1.4457 0
M  V30 151 C 0.6771 0.4793 9.9350 0
M  V30 152 H 1.4727 -0.2962 10.0107 0
M  V30 153 C -0.8555 -0.2703 9.9438 0
M  V30 154 H 0.7778 1.1228 10.8331 0
M  V30 155 H -0.9528 -0.9019 10.8510 0
M  V30 156 C -1.1078 -1.1930 8.5847 0
M  V30 157 H -1.6509 0.5060 10.0128 0
M  V30 158 H -0.4022 -2.0314 8.5805 0
M  V30 159 C -0.9402 -0.3397 7.2574 0
M  V30 160 H -2.1149 -1.6342 8.6099 0
M  V30 161 C 0.7565 0.5140 7.2499 0
M  V30 162 H -1.7175 0.4402 7.2462 0
M  V30 163 C 0.9224 1.3847 8.5638 0
M  V30 164 H 1.5370 -0.2615 7.2508 0
M  V30 165 H 0.2095 2.2172 8.5472 0
M  V30 166 H 1.9266 1.8354 8.5837 0
M  V30 167 N -1.1881 -1.4644 5.8201 0
M  V30 168 N 1.0004 1.6183 5.8014 0
M  V30 END ATOM
M  V30 BEGIN BOND
M  V30 0 1 1 10
M  V30 1 1 1 2
M  V30 2 2 1 95
M  V30 3 1 2 3
M  V30 4 2 2 9
M  V30 5 1 3 11
M  V30 6 2 3 4
M  V30 7 1 4 5
M  V30 8 1 4 6
M  V30 9 1 5 12
M  V30 10 2 5 78
M  V30 11 1 6 13
M  V30 12 2 6 7
M  V30 13 1 7 9
M  V30 14 1 7 8
M  V30 15 1 8 14
M  V30 16 2 8 113
M  V30 17 1 9 15
M  V30 18 1 16 25
M  V30 19 1 16 17
M  V30 20 2 16 150
M  V30 21 1 17 18
M  V30 22 2 17 24
M  V30 23 1 18 26
M  V30 24 2 18 19
M  V30 25 1 19 20
M  V30 26 1 19 21
M  V30 27 1 20 27
M  V30 28 2 20 77
M  V30 29 1 21 28
M  V30 30 2 21 22
M  V30 31 1 22 24
M  V30 32 1 22 23
M  V30 33 1 23 29
M  V30 34 2 23 132
M  V30 35 1 24 30
M  V30 36 1 31 40
M  V30 37 1 31 32
M  V30 38 2 31 168
M  V30 39 1 32 33
M  V30 40 2 32 39
M  V30 41 1 33 41
M  V30 42 2 33 34
M  V30 43 1 34 35
M  V30 44 1 34 36
M  V30 45 1 35 42
M  V30 46 2 35 131
M  V30 47 1 36 43
M  V30 48 2 36 37
M  V30 49 1 37 39
M  V30 50 1 37 38
M  V30 51 1 38 44
M  V30 52 2 38 96
M  V30 53 1 39 45
M  V30 54 1 46 55
M  V30 55 1 46 47
M  V30 56 2 46 114
M  V30 57 1 47 48
M  V30 58 2 47 54
M  V30 59 1 48 56
M  V30 60 2 48 49
M  V30 61 1 49 50
M  V30 62 1 49 51
M  V30 63 1 50 57
M  V30 64 2 50 149
M  V30 65 1 51 58
M  V30 66 2 51 52
M  V30 67 1 52 54
M  V30 68 1 52 53
M  V30 69 1 53 59
M  V30 70 2 53 167
M  V30 71 1 54 60
M  V30 72 1 61 62
M  V30 73 1 61 63
M  V30 74 1 61 64
M  V30 75 1 61 73
M  V30 76 1 63 65
M  V30 77 1 63 66
M  V30 78 1 63 67
M  V30 79 1 66 68
M  V30 80 1 66 69
M  V30 81 1 66 70
M  V30 82 1 69 71
M  V30 83 1 69 72
M  V30 84 1 69 77
M  V30 85 1 71 74
M  V30 86 1 71 73
M  V30 87 1 71 78
M  V30 88 1 73 75
M  V30 89 1 73 76
M  V30 90 1 79 80
M  V30 91 1 79 81
M  V30 92 1 79 82
M  V30 93 1 79 91
M  V30 94 1 81 83
M  V30 95 1 81 84
M  V30 96 1 81 85
M  V30 97 1 84 86
M  V30 98 1 84 87
M  V30 99 1 84 88
M  V30 100 1 87 89
M  V30 101 1 87 90
M  V30 102 1 87 95
M  V30 103 1 89 92
M  V30 104 1 89 91
M  V30 105 1 89 96
M  V30 106 1 91 93
M  V30 107 1 91 94
M  V30 108 1 97 98
M  V30 109 1 97 99
M  V30 110 1 97 100
M  V30 111 1 97 109
M  V30 112 1 99 101
M  V30 113 1 99 102
M  V30 114 1 99 103
M  V30 115 1 102 104
M  V30 116 1 102 105
M  V30 117 1 102 106
M  V30 118 1 105 107
M  V30 119 1 105 108
M  V30 120 1 105 113
M  V30 121 1 107 110
M  V30 122 1 107 109
M  V30 123 1 107 114
M  V30 124 1 109 111
M  V30 125 1 109 112
M  V30 126 1 115 116
M  V30 127 1 115 117
M  V30 128 1 115 118
M  V30 129 1 115 127
M  V30 130 1 117 119
M  V30 131 1 117 120
M  V30 132 1 117 121
M  V30 133 1 120 122
M  V30 134 1 120 123
M  V30 135 1 120 124
M  V30 136 1 123 125
M  V30 137 1 123 126
M  V30 138 1 123 131
M  V30 139 1 125 128
M  V30 140 1 125 127
M  V30 141 1 125 132
M  V30 142 1 127 129
M  V30 143 1 127 130
M  V30 144 1 133 134
M  V30 145 1 133 135
M  V30 146 1 133 136
M  V30 147 1 133 145
M  V30 148 1 135 137
M  V30 149 1 135 138
M  V30 150 1 135 139
M  V30 151 1 138 140
M  V30 152 1 138 141
M  V30 153 1 138 142
M  V30 154 1 141 143
M  V30 155 1 141 144
M  V30 156 1 141 149
M  V30 157 1 143 146
M  V30 158 1 143 145
M  V30 159 1 143 150
M  V30 160 1 145 147
M  V30 161 1 145 148
M  V30 162 1 151 152
M  V30 163 1 151 153
M  V30 164 1 151 154
M  V30 165 1 151 163
M  V30 166 1 153 155
M  V30 167 1 153 156
M  V30 168 1 153 157
M  V30 169 1 156 158
M  V30 170 1 156 159
M  V30 171 1 156 160
M  V30 172 1 159 161
M  V30 173 1 159 162
M  V30 174 1 159 167
M  V30 175 1 161 164
M  V30 176 1 161 163
M  V30 177 1 161 168
M  V30 178 1 163 165
M  V30 179 1 163 166
M  V30 END BOND
M  V30 END CTAB
M  END

$$$$
