
 OpenBabel01131719383D

 16 16  0  0  0  0  0  0  0  0999 V2000
   -2.4530    1.1280   -1.6540 Y   0  0  0  0  0  0  0  0  0  0  0  0
   -1.6550    0.3690   -0.8180 N   0  0  0  0  0  0  0  0  0  0  0  0
   -0.4090    0.5830   -0.6770 C   0  0  0  0  0  0  0  0  0  0  0  0
    0.5070    1.6910   -1.2890 C   0  0  0  0  0  0  0  0  0  0  0  0
    1.7710    1.8720   -0.5320 N   0  0  0  0  0  0  0  0  0  0  0  0
    2.4690    0.5990   -0.2240 C   0  0  0  0  0  0  0  0  0  0  0  0
    1.5120   -0.4860    0.3660 C   0  0  0  0  0  0  0  0  0  0  0  0
    0.1750   -0.3810    0.0980 N   0  0  0  0  0  0  0  0  0  0  0  0
    1.7660   -1.5350    1.0390 N   0  0  0  0  0  0  0  0  0  0  0  0
    3.0550   -1.9380    1.3360 Y   0  0  0  0  0  0  0  0  0  0  0  0
    0.7050    1.4380   -2.3320 H   0  0  0  0  0  0  0  0  0  0  0  0
   -0.0310    2.6400   -1.2860 H   0  0  0  0  0  0  0  0  0  0  0  0
    2.7301    2.5125   -2.4469 Ru  0  0  0  0  0  0  0  0  0  0  0  0
    2.9510    0.1880   -1.1130 H   0  0  0  0  0  0  0  0  0  0  0  0
    3.2580    0.8090    0.5000 H   0  0  0  0  0  0  0  0  0  0  0  0
   -0.4396   -0.7161    2.3321 Ru  0  0  0  0  0  0  0  0  0  0  0  0
  1  2  1  0  0  0  0
  2  3  2  0  0  0  0
  3  4  1  0  0  0  0
  3  8  1  0  0  0  0
  4  5  1  0  0  0  0
  4 11  1  0  0  0  0
  4 12  1  0  0  0  0
  5  6  1  0  0  0  0
  5 13  1  0  0  0  0
  6  7  1  0  0  0  0
  6 14  1  0  0  0  0
  6 15  1  0  0  0  0
  7  8  1  0  0  0  0
  7  9  2  0  0  0  0
  8 16  1  0  0  0  0
  9 10  1  0  0  0  0
M  END
