
     RDKit          3D

  0  0  0  0  0  0  0  0  0  0999 V3000
M  V30 BEGIN CTAB
M  V30 COUNTS 56 61 0 0 0
M  V30 BEGIN ATOM
M  V30 1 C -0.3951 -1.4027 -2.1454 0
M  V30 2 C -0.8204 -0.8133 -0.7635 0
M  V30 3 C -0.5065 -1.9382 0.2448 0
M  V30 4 C -1.2480 -3.0738 0.5673 0
M  V30 5 C -0.7652 -3.9757 1.5169 0
M  V30 6 C 0.4631 -3.7522 2.1543 0
M  V30 7 C 0.9582 -4.7245 3.1636 0
M  V30 8 O 2.0232 -4.6132 3.7713 0
M  V30 9 C 1.2128 -2.6113 1.8360 0
M  V30 10 C 0.7416 -1.7022 0.8888 0
M  V30 11 C 1.3750 -0.3813 0.4012 0
M  V30 12 C 2.4584 -0.8060 -0.6400 0
M  V30 13 C 1.8669 0.9820 0.9300 0
M  V30 14 C 1.1930 2.0497 0.2714 0
M  V30 15 C 1.5005 3.3692 0.6024 0
M  V30 16 C 2.4680 3.6459 1.5790 0
M  V30 17 C 2.7996 5.0501 1.9383 0
M  V30 18 O 2.2763 6.0399 1.4263 0
M  V30 19 C 3.1250 2.5883 2.2240 0
M  V30 20 C 2.8261 1.2638 1.9015 0
M  V30 21 C 0.1601 1.5106 -0.7419 0
M  V30 22 C 0.8523 1.6319 -2.1362 0
M  V30 23 C -1.3491 1.5575 -1.0590 0
M  V30 24 C -2.1706 2.6562 -1.3061 0
M  V30 25 C -3.5252 2.4669 -1.5830 0
M  V30 26 C -4.0738 1.1769 -1.6158 0
M  V30 27 C -5.5199 0.9965 -1.9109 0
M  V30 28 O -6.0872 -0.0949 -1.9616 0
M  V30 29 C -3.2533 0.0674 -1.3664 0
M  V30 30 C -1.8980 0.2439 -1.0881 0
M  V30 31 C 0.0068 0.1992 0.0334 0
M  V30 32 C -0.8107 0.5311 1.4512 0
M  V30 33 H 0.2881 -2.2493 -2.0787 0
M  V30 34 H 0.0477 -0.6937 -2.8321 0
M  V30 35 H -1.2718 -1.8055 -2.6538 0
M  V30 36 H -2.1969 -3.2597 0.0860 0
M  V30 37 H -1.3609 -4.8480 1.7491 0
M  V30 38 H 0.2998 -5.5749 3.3432 0
M  V30 39 H 2.1581 -2.4297 2.3296 0
M  V30 40 H 2.0814 -1.3203 -1.5139 0
M  V30 41 H 3.1657 -1.4904 -0.1702 0
M  V30 42 H 3.0789 0.0154 -0.9984 0
M  V30 43 H 0.9832 4.1786 0.1044 0
M  V30 44 H 3.5616 5.1585 2.7107 0
M  V30 45 H 3.8734 2.7748 2.9826 0
M  V30 46 H 3.3403 0.4602 2.4081 0
M  V30 47 H 1.1423 2.6690 -2.3087 0
M  V30 48 H 1.7543 1.0467 -2.2556 0
M  V30 49 H 0.2039 1.3919 -2.9788 0
M  V30 50 H -1.7632 3.6564 -1.2835 0
M  V30 51 H -4.1372 3.3394 -1.7694 0
M  V30 52 H -6.0713 1.9207 -2.0865 0
M  V30 53 H -3.6691 -0.9314 -1.3828 0
M  V30 54 H -1.0276 1.5916 1.5884 0
M  V30 55 H -1.7770 0.0293 1.5225 0
M  V30 56 H -0.2647 0.2320 2.3472 0
M  V30 END ATOM
M  V30 BEGIN BOND
M  V30 0 1 1 2
M  V30 1 1 1 33
M  V30 2 1 1 34
M  V30 3 1 1 35
M  V30 4 1 2 3
M  V30 5 1 2 30
M  V30 6 1 2 31
M  V30 7 2 3 4
M  V30 8 1 3 10
M  V30 9 1 4 5
M  V30 10 1 4 36
M  V30 11 2 5 6
M  V30 12 1 5 37
M  V30 13 1 6 7
M  V30 14 1 6 9
M  V30 15 2 7 8
M  V30 16 1 7 38
M  V30 17 2 9 10
M  V30 18 1 9 39
M  V30 19 1 10 11
M  V30 20 1 11 12
M  V30 21 1 11 13
M  V30 22 1 11 31
M  V30 23 1 12 40
M  V30 24 1 12 41
M  V30 25 1 12 42
M  V30 26 2 13 14
M  V30 27 1 13 20
M  V30 28 1 14 15
M  V30 29 1 14 21
M  V30 30 2 15 16
M  V30 31 1 15 43
M  V30 32 1 16 17
M  V30 33 1 16 19
M  V30 34 2 17 18
M  V30 35 1 17 44
M  V30 36 2 19 20
M  V30 37 1 19 45
M  V30 38 1 20 46
M  V30 39 1 21 22
M  V30 40 1 21 23
M  V30 41 1 21 31
M  V30 42 1 22 47
M  V30 43 1 22 48
M  V30 44 1 22 49
M  V30 45 2 23 24
M  V30 46 1 23 30
M  V30 47 1 24 25
M  V30 48 1 24 50
M  V30 49 2 25 26
M  V30 50 1 25 51
M  V30 51 1 26 27
M  V30 52 1 26 29
M  V30 53 2 27 28
M  V30 54 1 27 52
M  V30 55 2 29 30
M  V30 56 1 29 53
M  V30 57 1 31 32
M  V30 58 1 32 54
M  V30 59 1 32 55
M  V30 60 1 32 56
M  V30 END BOND
M  V30 END CTAB
M  END

$$$$
