
     RDKit          3D

  0  0  0  0  0  0  0  0  0  0999 V3000
M  V30 BEGIN CTAB
M  V30 COUNTS 24 24 0 0 0
M  V30 BEGIN ATOM
M  V30 1 N 1.6417 2.4448 0.7215 0
M  V30 2 C 0.9710 1.1428 0.6853 0
M  V30 3 C -0.0919 1.0788 1.7894 0
M  V30 4 C -0.8917 -0.2331 1.7752 0
M  V30 5 N -0.0937 -1.3616 2.2611 0
M  V30 6 C -1.4602 -0.5162 0.3756 0
M  V30 7 C -0.4003 -0.4446 -0.7315 0
M  V30 8 N -1.0321 -0.6380 -2.0396 0
M  V30 9 C 0.3496 0.8940 -0.6950 0
M  V30 10 H 0.9709 3.1906 0.5378 0
M  V30 11 H 2.3331 2.4987 -0.0262 0
M  V30 12 H 1.7334 0.3781 0.8749 0
M  V30 13 H -0.7987 1.9115 1.6653 0
M  V30 14 H 0.3759 1.2218 2.7726 0
M  V30 15 H -1.7359 -0.1265 2.4671 0
M  V30 16 H 0.2673 -1.1504 3.1917 0
M  V30 17 H 0.7216 -1.5224 1.6736 0
M  V30 18 H -1.9520 -1.4981 0.3635 0
M  V30 19 H -2.2496 0.2214 0.1730 0
M  V30 20 H 0.3202 -1.2593 -0.5924 0
M  V30 21 H -1.7145 0.0987 -2.2140 0
M  V30 22 H -0.3339 -0.5621 -2.7782 0
M  V30 23 H -0.3393 1.7131 -0.9454 0
M  V30 24 H 1.1361 0.8986 -1.4612 0
M  V30 END ATOM
M  V30 BEGIN BOND
M  V30 0 1 2 1
M  V30 1 1 2 3
M  V30 2 1 3 4
M  V30 3 1 4 5
M  V30 4 1 4 6
M  V30 5 1 6 7
M  V30 6 1 7 8
M  V30 7 1 7 9
M  V30 8 1 9 2
M  V30 9 1 1 10
M  V30 10 1 1 11
M  V30 11 1 2 12
M  V30 12 1 3 13
M  V30 13 1 3 14
M  V30 14 1 4 15
M  V30 15 1 5 16
M  V30 16 1 5 17
M  V30 17 1 6 18
M  V30 18 1 6 19
M  V30 19 1 7 20
M  V30 20 1 8 21
M  V30 21 1 8 22
M  V30 22 1 9 23
M  V30 23 1 9 24
M  V30 END BOND
M  V30 END CTAB
M  END

$$$$
