
     RDKit          3D

 77 82  0  0  0  0  0  0  0  0999 V2000
    2.4689    1.5754    2.0645 C   0  0  0  0  0  0  0  0  0  0  0  0
    1.4059    0.4728    2.1615 C   0  0  0  0  0  0  0  0  0  0  0  0
    0.4737    0.2313    0.8962 C   0  0  0  0  0  0  0  0  0  0  0  0
   -0.7712   -0.5584    1.4600 C   0  0  0  0  0  0  0  0  0  0  0  0
   -0.5904   -1.7930    2.1119 C   0  0  0  0  0  0  0  0  0  0  0  0
   -1.6785   -2.5298    2.6072 C   0  0  0  0  0  0  0  0  0  0  0  0
   -2.9971   -2.0665    2.4933 C   0  0  0  0  0  0  0  0  0  0  0  0
   -4.1507   -2.8429    3.0195 C   0  0  0  0  0  0  0  0  0  0  0  0
   -5.4129   -2.8002    2.3906 C   0  0  0  0  0  0  0  0  0  0  0  0
   -6.5067   -3.5271    2.8799 C   0  0  0  0  0  0  0  0  0  0  0  0
   -6.3481   -4.3445    3.9983 C   0  0  0  0  0  0  0  0  0  0  0  0
   -7.4853   -5.1540    4.4793 C   0  0  0  0  0  0  0  0  0  0  0  0
   -7.3359   -6.0670    5.2853 O   0  0  0  0  0  0  0  0  0  0  0  0
   -5.1112   -4.4098    4.6396 C   0  0  0  0  0  0  0  0  0  0  0  0
   -4.0328   -3.6609    4.1607 C   0  0  0  0  0  0  0  0  0  0  0  0
   -3.1744   -0.8325    1.8423 C   0  0  0  0  0  0  0  0  0  0  0  0
   -2.0943   -0.1060    1.3161 C   0  0  0  0  0  0  0  0  0  0  0  0
    0.0559    1.6161    0.2880 C   0  0  0  0  0  0  0  0  0  0  0  0
   -0.3388    2.6810    1.1205 C   0  0  0  0  0  0  0  0  0  0  0  0
   -0.7095    3.9298    0.6051 C   0  0  0  0  0  0  0  0  0  0  0  0
   -0.7347    4.1733   -0.7750 C   0  0  0  0  0  0  0  0  0  0  0  0
   -1.0957    5.5006   -1.3233 C   0  0  0  0  0  0  0  0  0  0  0  0
   -2.0960    6.2942   -0.7286 C   0  0  0  0  0  0  0  0  0  0  0  0
   -2.4110    7.5632   -1.2219 C   0  0  0  0  0  0  0  0  0  0  0  0
   -1.7410    8.0605   -2.3379 C   0  0  0  0  0  0  0  0  0  0  0  0
   -2.0430    9.4096   -2.8516 C   0  0  0  0  0  0  0  0  0  0  0  0
   -2.8870   10.1284   -2.3286 O   0  0  0  0  0  0  0  0  0  0  0  0
   -0.7554    7.2948   -2.9588 C   0  0  0  0  0  0  0  0  0  0  0  0
   -0.4412    6.0297   -2.4536 C   0  0  0  0  0  0  0  0  0  0  0  0
   -0.3764    3.1055   -1.6083 C   0  0  0  0  0  0  0  0  0  0  0  0
    0.0155    1.8594   -1.0929 C   0  0  0  0  0  0  0  0  0  0  0  0
    1.1992   -0.6814   -0.1637 C   0  0  0  0  0  0  0  0  0  0  0  0
    2.5963   -0.7812   -0.2663 C   0  0  0  0  0  0  0  0  0  0  0  0
    3.2057   -1.5879   -1.2331 C   0  0  0  0  0  0  0  0  0  0  0  0
    2.4463   -2.3384   -2.1373 C   0  0  0  0  0  0  0  0  0  0  0  0
    3.1011   -3.1894   -3.1420 C   0  0  0  0  0  0  0  0  0  0  0  0
    4.0130   -4.1870   -2.7523 C   0  0  0  0  0  0  0  0  0  0  0  0
    4.6527   -4.9832   -3.7045 C   0  0  0  0  0  0  0  0  0  0  0  0
    4.3908   -4.7919   -5.0627 C   0  0  0  0  0  0  0  0  0  0  0  0
    5.0782   -5.6238   -6.0711 C   0  0  0  0  0  0  0  0  0  0  0  0
    5.8313   -6.5369   -5.7554 O   0  0  0  0  0  0  0  0  0  0  0  0
    3.4949   -3.8038   -5.4754 C   0  0  0  0  0  0  0  0  0  0  0  0
    2.8514   -3.0138   -4.5169 C   0  0  0  0  0  0  0  0  0  0  0  0
    1.0546   -2.2553   -2.0456 C   0  0  0  0  0  0  0  0  0  0  0  0
    0.4445   -1.4423   -1.0825 C   0  0  0  0  0  0  0  0  0  0  0  0
    2.7936    1.7824    1.0427 H   0  0  0  0  0  0  0  0  0  0  0  0
    2.1014    2.5115    2.4933 H   0  0  0  0  0  0  0  0  0  0  0  0
    3.3508    1.2945    2.6485 H   0  0  0  0  0  0  0  0  0  0  0  0
    1.9179   -0.4660    2.4197 H   0  0  0  0  0  0  0  0  0  0  0  0
    0.7930    0.7086    3.0450 H   0  0  0  0  0  0  0  0  0  0  0  0
    0.4076   -2.2169    2.2200 H   0  0  0  0  0  0  0  0  0  0  0  0
   -1.4684   -3.4887    3.0766 H   0  0  0  0  0  0  0  0  0  0  0  0
   -5.5552   -2.2040    1.4927 H   0  0  0  0  0  0  0  0  0  0  0  0
   -7.4597   -3.4629    2.3546 H   0  0  0  0  0  0  0  0  0  0  0  0
   -8.4753   -4.9231    4.0549 H   0  0  0  0  0  0  0  0  0  0  0  0
   -4.9792   -5.0438    5.5124 H   0  0  0  0  0  0  0  0  0  0  0  0
   -3.0899   -3.7198    4.7035 H   0  0  0  0  0  0  0  0  0  0  0  0
   -4.1672   -0.4041    1.7226 H   0  0  0  0  0  0  0  0  0  0  0  0
   -2.3316    0.8123    0.7852 H   0  0  0  0  0  0  0  0  0  0  0  0
   -0.3706    2.5496    2.2014 H   0  0  0  0  0  0  0  0  0  0  0  0
   -0.9746    4.7179    1.3100 H   0  0  0  0  0  0  0  0  0  0  0  0
   -2.6445    5.9295    0.1368 H   0  0  0  0  0  0  0  0  0  0  0  0
   -3.1781    8.1547   -0.7291 H   0  0  0  0  0  0  0  0  0  0  0  0
   -1.4615    9.7375   -3.7303 H   0  0  0  0  0  0  0  0  0  0  0  0
   -0.2164    7.6743   -3.8249 H   0  0  0  0  0  0  0  0  0  0  0  0
    0.3483    5.4564   -2.9409 H   0  0  0  0  0  0  0  0  0  0  0  0
   -0.4032    3.2189   -2.6898 H   0  0  0  0  0  0  0  0  0  0  0  0
    0.2854    1.0963   -1.8145 H   0  0  0  0  0  0  0  0  0  0  0  0
    3.2646   -0.2397    0.3937 H   0  0  0  0  0  0  0  0  0  0  0  0
    4.2939   -1.6109   -1.2801 H   0  0  0  0  0  0  0  0  0  0  0  0
    4.2184   -4.3565   -1.6961 H   0  0  0  0  0  0  0  0  0  0  0  0
    5.3555   -5.7499   -3.3796 H   0  0  0  0  0  0  0  0  0  0  0  0
    4.8834   -5.3828   -7.1277 H   0  0  0  0  0  0  0  0  0  0  0  0
    3.2853   -3.6394   -6.5304 H   0  0  0  0  0  0  0  0  0  0  0  0
    2.1620   -2.2395   -4.8499 H   0  0  0  0  0  0  0  0  0  0  0  0
    0.4230   -2.8314   -2.7202 H   0  0  0  0  0  0  0  0  0  0  0  0
   -0.6439   -1.4122   -1.0591 H   0  0  0  0  0  0  0  0  0  0  0  0
  1  2  1  0
  2  3  1  0
  3  4  1  0
  4  5  2  0
  5  6  1  0
  6  7  2  0
  7  8  1  0
  8  9  2  0
  9 10  1  0
 10 11  2  0
 11 12  1  0
 12 13  2  0
 11 14  1  0
 14 15  2  0
  7 16  1  0
 16 17  2  0
  3 18  1  0
 18 19  2  0
 19 20  1  0
 20 21  2  0
 21 22  1  0
 22 23  2  0
 23 24  1  0
 24 25  2  0
 25 26  1  0
 26 27  2  0
 25 28  1  0
 28 29  2  0
 21 30  1  0
 30 31  2  0
  3 32  1  0
 32 33  2  0
 33 34  1  0
 34 35  2  0
 35 36  1  0
 36 37  2  0
 37 38  1  0
 38 39  2  0
 39 40  1  0
 40 41  2  0
 39 42  1  0
 42 43  2  0
 35 44  1  0
 44 45  2  0
 17  4  1  0
 15  8  1  0
 31 18  1  0
 29 22  1  0
 45 32  1  0
 43 36  1  0
  1 46  1  0
  1 47  1  0
  1 48  1  0
  2 49  1  0
  2 50  1  0
  5 51  1  0
  6 52  1  0
  9 53  1  0
 10 54  1  0
 12 55  1  0
 14 56  1  0
 15 57  1  0
 16 58  1  0
 17 59  1  0
 19 60  1  0
 20 61  1  0
 23 62  1  0
 24 63  1  0
 26 64  1  0
 28 65  1  0
 29 66  1  0
 30 67  1  0
 31 68  1  0
 33 69  1  0
 34 70  1  0
 37 71  1  0
 38 72  1  0
 40 73  1  0
 42 74  1  0
 43 75  1  0
 44 76  1  0
 45 77  1  0
M  END
