
     RDKit          3D

 44 46  0  0  0  0  0  0  0  0999 V2000
    3.9077   -6.8062    0.1101 N   0  0  0  0  0  0  0  0  0  0  0  0
    3.5784   -5.7655   -0.7688 C   0  0  0  0  0  0  0  0  0  0  0  0
    4.5034   -5.3310   -1.7260 C   0  0  0  0  0  0  0  0  0  0  0  0
    4.2326   -4.2395   -2.5603 C   0  0  0  0  0  0  0  0  0  0  0  0
    5.2077   -3.7729   -3.4521 N   0  0  0  0  0  0  0  0  0  0  0  0
    3.0781   -3.4898   -2.3278 C   0  0  0  0  0  0  0  0  0  0  0  0
    2.1727   -3.8738   -1.3358 C   0  0  0  0  0  0  0  0  0  0  0  0
    0.9925   -3.0983   -1.1066 C   0  0  0  0  0  0  0  0  0  0  0  0
    0.0016   -2.4464   -0.9152 C   0  0  0  0  0  0  0  0  0  0  0  0
   -1.1769   -1.6686   -0.6874 C   0  0  0  0  0  0  0  0  0  0  0  0
   -1.1297   -0.5621    0.1645 C   0  0  0  0  0  0  0  0  0  0  0  0
   -2.2819    0.1969    0.3854 C   0  0  0  0  0  0  0  0  0  0  0  0
   -2.2360    1.3304    1.2563 C   0  0  0  0  0  0  0  0  0  0  0  0
   -2.1978    2.2829    1.9874 C   0  0  0  0  0  0  0  0  0  0  0  0
   -2.1535    3.4176    2.8576 C   0  0  0  0  0  0  0  0  0  0  0  0
   -2.6777    3.3275    4.1493 C   0  0  0  0  0  0  0  0  0  0  0  0
   -2.5833    4.4100    5.0256 C   0  0  0  0  0  0  0  0  0  0  0  0
   -3.1846    4.3494    6.2907 N   0  0  0  0  0  0  0  0  0  0  0  0
   -2.0706    5.6213    4.5459 C   0  0  0  0  0  0  0  0  0  0  0  0
   -1.5974    5.7454    3.2338 C   0  0  0  0  0  0  0  0  0  0  0  0
   -0.9533    6.9210    2.8241 N   0  0  0  0  0  0  0  0  0  0  0  0
   -1.5865    4.6151    2.4150 C   0  0  0  0  0  0  0  0  0  0  0  0
   -3.4795   -0.1512   -0.2449 C   0  0  0  0  0  0  0  0  0  0  0  0
   -3.5264   -1.2572   -1.0953 C   0  0  0  0  0  0  0  0  0  0  0  0
   -2.3754   -2.0155   -1.3165 C   0  0  0  0  0  0  0  0  0  0  0  0
    2.4297   -5.0019   -0.5531 C   0  0  0  0  0  0  0  0  0  0  0  0
    3.1040   -7.2482    0.5453 H   0  0  0  0  0  0  0  0  0  0  0  0
    4.5585   -7.4820   -0.2777 H   0  0  0  0  0  0  0  0  0  0  0  0
    5.4507   -5.8538   -1.8255 H   0  0  0  0  0  0  0  0  0  0  0  0
    5.8396   -4.4939   -3.7858 H   0  0  0  0  0  0  0  0  0  0  0  0
    4.8378   -3.2025   -4.2063 H   0  0  0  0  0  0  0  0  0  0  0  0
    2.8884   -2.5914   -2.9097 H   0  0  0  0  0  0  0  0  0  0  0  0
   -0.1969   -0.2915    0.6547 H   0  0  0  0  0  0  0  0  0  0  0  0
   -3.1421    2.4016    4.4783 H   0  0  0  0  0  0  0  0  0  0  0  0
   -3.2332    3.4104    6.6747 H   0  0  0  0  0  0  0  0  0  0  0  0
   -2.8023    5.0153    6.9552 H   0  0  0  0  0  0  0  0  0  0  0  0
   -2.0379    6.4834    5.2064 H   0  0  0  0  0  0  0  0  0  0  0  0
   -0.9311    7.0460    1.8165 H   0  0  0  0  0  0  0  0  0  0  0  0
   -1.2764    7.7535    3.3074 H   0  0  0  0  0  0  0  0  0  0  0  0
   -1.1535    4.6699    1.4195 H   0  0  0  0  0  0  0  0  0  0  0  0
   -4.3800    0.4354   -0.0772 H   0  0  0  0  0  0  0  0  0  0  0  0
   -4.4586   -1.5279   -1.5847 H   0  0  0  0  0  0  0  0  0  0  0  0
   -2.4190   -2.8765   -1.9798 H   0  0  0  0  0  0  0  0  0  0  0  0
    1.7378   -5.2749    0.2394 H   0  0  0  0  0  0  0  0  0  0  0  0
  1  2  1  0
  2  3  2  0
  3  4  1  0
  4  5  1  0
  4  6  2  0
  6  7  1  0
  7  8  1  0
  8  9  3  0
  9 10  1  0
 10 11  2  0
 11 12  1  0
 12 13  1  0
 13 14  3  0
 14 15  1  0
 15 16  2  0
 16 17  1  0
 17 18  1  0
 17 19  2  0
 19 20  1  0
 20 21  1  0
 20 22  2  0
 12 23  2  0
 23 24  1  0
 24 25  2  0
  7 26  2  0
 26  2  1  0
 25 10  1  0
 22 15  1  0
  1 27  1  0
  1 28  1  0
  3 29  1  0
  5 30  1  0
  5 31  1  0
  6 32  1  0
 11 33  1  0
 16 34  1  0
 18 35  1  0
 18 36  1  0
 19 37  1  0
 21 38  1  0
 21 39  1  0
 22 40  1  0
 23 41  1  0
 24 42  1  0
 25 43  1  0
 26 44  1  0
M  END
