
     RDKit          3D

  0  0  0  0  0  0  0  0  0  0999 V3000
M  V30 BEGIN CTAB
M  V30 COUNTS 37 39 0 0 0
M  V30 BEGIN ATOM
M  V30 1 C 3.1747 2.1211 -2.1979 0
M  V30 2 C 2.9418 2.6800 -0.7878 0
M  V30 3 O 2.0164 1.8702 -0.0715 0
M  V30 4 C 0.6792 2.0573 -0.1762 0
M  V30 5 O 0.1723 2.9421 -0.8721 0
M  V30 6 C -0.1130 1.1117 0.6436 0
M  V30 7 C -1.3766 1.4228 1.0308 0
M  V30 8 N -2.1101 2.5298 0.7135 0
M  V30 9 N -2.1025 0.6126 1.8592 0
M  V30 10 C -1.5958 -0.5329 2.4033 0
M  V30 11 N -2.5051 -1.1161 3.2347 0
M  V30 12 C -0.3664 -0.9908 2.0812 0
M  V30 13 C 0.5796 -0.1946 1.1427 0
M  V30 14 C 1.1651 -1.2009 0.1328 0
M  V30 15 C 1.4006 -0.9712 -1.2326 0
M  V30 16 C 1.9778 -1.9505 -2.0426 0
M  V30 17 C 2.3235 -3.1888 -1.5054 0
M  V30 18 C 2.0736 -3.4524 -0.1607 0
M  V30 19 C 1.4891 -2.4717 0.6397 0
M  V30 20 O 1.2100 -2.8331 1.9436 0
M  V30 21 C 0.1697 -2.2572 2.6262 0
M  V30 22 O -0.2146 -2.8602 3.6283 0
M  V30 23 H 3.5339 1.0926 -2.1558 0
M  V30 24 H 2.2540 2.1340 -2.7818 0
M  V30 25 H 3.9159 2.7140 -2.7327 0
M  V30 26 H 2.6085 3.7191 -0.8320 0
M  V30 27 H 3.8837 2.6804 -0.2383 0
M  V30 28 H -2.7265 2.9469 1.3912 0
M  V30 29 H -1.6892 3.1510 0.0311 0
M  V30 30 H -3.1016 0.6633 1.7683 0
M  V30 31 H -3.1095 -0.5390 3.7954 0
M  V30 32 H -2.2061 -1.9892 3.6540 0
M  V30 33 H 1.3893 0.1581 1.7877 0
M  V30 34 H 1.1369 -0.0322 -1.6909 0
M  V30 35 H 2.1540 -1.7468 -3.0890 0
M  V30 36 H 2.7694 -3.9479 -2.1315 0
M  V30 37 H 2.3141 -4.4175 0.2606 0
M  V30 END ATOM
M  V30 BEGIN BOND
M  V30 0 1 1 2
M  V30 1 1 1 23
M  V30 2 1 1 24
M  V30 3 1 1 25
M  V30 4 1 2 3
M  V30 5 1 2 26
M  V30 6 1 2 27
M  V30 7 1 3 4
M  V30 8 2 4 5
M  V30 9 1 4 6
M  V30 10 2 6 7
M  V30 11 1 6 13
M  V30 12 1 7 8
M  V30 13 1 7 9
M  V30 14 1 8 28
M  V30 15 1 8 29
M  V30 16 1 9 10
M  V30 17 1 9 30
M  V30 18 1 10 11
M  V30 19 2 10 12
M  V30 20 1 11 31
M  V30 21 1 11 32
M  V30 22 1 12 13
M  V30 23 1 12 21
M  V30 24 1 13 14
M  V30 25 1 13 33
M  V30 26 2 14 15
M  V30 27 1 14 19
M  V30 28 1 15 16
M  V30 29 1 15 34
M  V30 30 2 16 17
M  V30 31 1 16 35
M  V30 32 1 17 18
M  V30 33 1 17 36
M  V30 34 2 18 19
M  V30 35 1 18 37
M  V30 36 1 19 20
M  V30 37 1 20 21
M  V30 38 2 21 22
M  V30 END BOND
M  V30 END CTAB
M  END

$$$$
