
     RDKit          3D

  0  0  0  0  0  0  0  0  0  0999 V3000
M  V30 BEGIN CTAB
M  V30 COUNTS 18 17 0 0 0
M  V30 BEGIN ATOM
M  V30 1 C -0.3018 -1.0514 -0.5127 0
M  V30 2 C -0.4796 -0.1217 0.7067 0
M  V30 3 N -1.0975 -0.9894 1.7190 0
M  V30 4 C -1.4775 1.0419 0.3962 0
M  V30 5 N -2.8195 0.5761 0.0488 0
M  V30 6 C 0.9024 0.4690 1.1893 0
M  V30 7 F 1.7753 -0.4954 1.4935 0
M  V30 8 F 0.7613 1.2237 2.2822 0
M  V30 9 F 1.4703 1.2326 0.2536 0
M  V30 10 H -1.2384 -1.5196 -0.8179 0
M  V30 11 H 0.0766 -0.4979 -1.3726 0
M  V30 12 H 0.4075 -1.8552 -0.3119 0
M  V30 13 H -0.4597 -1.7433 1.9385 0
M  V30 14 H -1.2111 -0.4655 2.5778 0
M  V30 15 H -1.0906 1.6682 -0.4109 0
M  V30 16 H -1.5610 1.6954 1.2676 0
M  V30 17 H -3.0126 -0.1488 0.7353 0
M  V30 18 H -2.7842 0.0752 -0.8275 0
M  V30 END ATOM
M  V30 BEGIN BOND
M  V30 0 1 1 2
M  V30 1 1 1 10
M  V30 2 1 1 11
M  V30 3 1 1 12
M  V30 4 1 2 3
M  V30 5 1 2 4
M  V30 6 1 2 6
M  V30 7 1 3 13
M  V30 8 1 3 14
M  V30 9 1 4 5
M  V30 10 1 4 15
M  V30 11 1 4 16
M  V30 12 1 5 17
M  V30 13 1 5 18
M  V30 14 1 6 7
M  V30 15 1 6 8
M  V30 16 1 6 9
M  V30 END BOND
M  V30 END CTAB
M  END

$$$$
