/home/lukas/Desktop/db_new/aldehydes2f/aldehyde2f_2.pdb
 OpenBabel08101617593D

  0  0  0     0  0            999 V3000
M  V30 BEGIN CTAB
M  V30 COUNTS 19 19 0 0 0
M  V30 BEGIN ATOM
M  V30 1 N 1.874 -1.263 0.388 0
M  V30 2 C 0.639 -0.726 0.672 0
M  V30 3 C -0.516 -0.634 -0.107 0
M  V30 4 C -1.43 0.05 0.704 0
M  V30 5 N -0.948 0.328 1.889 0
M  V30 6 N 0.32 -0.129 1.885 0
M  V30 7 C 1.192 0.01 3.003 0
M  V30 8 O 0.849 0.543 4.061 0
M  V30 9 C -0.749 -1.023 -1.473 0
M  V30 10 O -1.681 -0.533 -2.114 0
M  V30 11 N 0.113 -1.939 -1.938 0
M  V30 12 C 0.101 -2.48 -3.161 0
M  V30 13 O 0.96 -3.29 -3.494 0
M  V30 14 H 2.139 -2.193 0.689 0
M  V30 15 H 2.575 -0.732 -0.114 0
M  V30 16 H -2.436 0.336 0.422 0
M  V30 17 H 2.191 -0.408 2.813 0
M  V30 18 H 0.853 -2.228 -1.322 0
M  V30 19 H -0.724 -2.134 -3.808 0
M  V30 END ATOM
M  V30 BEGIN BOND
M  V30 1 1 1 2
M  V30 2 1 1 14
M  V30 3 1 1 15
M  V30 4 2 2 3
M  V30 5 1 2 6
M  V30 6 1 3 4
M  V30 7 1 3 9
M  V30 8 2 4 5
M  V30 9 1 4 16
M  V30 10 1 5 6
M  V30 11 1 6 7
M  V30 12 2 7 8
M  V30 13 1 7 17
M  V30 14 2 9 10
M  V30 15 1 9 11
M  V30 16 1 11 12
M  V30 17 1 11 18
M  V30 18 2 12 13
M  V30 19 1 12 19
M  V30 END BOND
M  V30 END CTAB
M  END
