/home/lukas/Desktop/db_new/aldehydes2f/aldehyde2f_7.pdb
 OpenBabel08101617593D

  0  0  0     0  0            999 V3000
M  V30 BEGIN CTAB
M  V30 COUNTS 30 31 0 0 0
M  V30 BEGIN ATOM
M  V30 1 Cl -0.841 -3.32 1.885 0
M  V30 2 C 0.197 -2.503 0.764 0
M  V30 3 C 1.367 -3.088 0.25 0
M  V30 4 C 1.796 -4.461 0.643 0
M  V30 5 O 2.811 -5.012 0.215 0
M  V30 6 C 2.15 -2.358 -0.655 0
M  V30 7 C 1.773 -1.072 -1.041 0
M  V30 8 C 0.611 -0.483 -0.532 0
M  V30 9 C -0.165 -1.216 0.369 0
M  V30 10 N 0.202 0.796 -0.896 0
M  V30 11 C 0.164 1.829 0.158 0
M  V30 12 C -0.788 2.998 -0.195 0
M  V30 13 N -0.314 3.556 -1.471 0
M  V30 14 C -0.21 2.605 -2.586 0
M  V30 15 C 0.719 1.461 -2.107 0
M  V30 16 C 0.127 4.825 -1.581 0
M  V30 17 O 0.126 5.636 -0.656 0
M  V30 18 H 1.147 -4.974 1.352 0
M  V30 19 H 3.058 -2.781 -1.067 0
M  V30 20 H 2.4 -0.531 -1.732 0
M  V30 21 H -1.07 -0.778 0.76 0
M  V30 22 H -0.171 1.399 1.103 0
M  V30 23 H 1.171 2.212 0.346 0
M  V30 24 H -0.806 3.742 0.605 0
M  V30 25 H -1.807 2.631 -0.322 0
M  V30 26 H 0.169 3.059 -3.503 0
M  V30 27 H -1.203 2.207 -2.804 0
M  V30 28 H 0.792 0.732 -2.916 0
M  V30 29 H 1.728 1.841 -1.933 0
M  V30 30 H 0.488 5.055 -2.596 0
M  V30 END ATOM
M  V30 BEGIN BOND
M  V30 1 1 1 2
M  V30 2 2 2 3
M  V30 3 1 2 9
M  V30 4 1 3 4
M  V30 5 1 3 6
M  V30 6 2 4 5
M  V30 7 1 4 18
M  V30 8 2 6 7
M  V30 9 1 6 19
M  V30 10 1 7 8
M  V30 11 1 7 20
M  V30 12 2 8 9
M  V30 13 1 8 10
M  V30 14 1 9 21
M  V30 15 1 10 11
M  V30 16 1 10 15
M  V30 17 1 11 12
M  V30 18 1 11 22
M  V30 19 1 11 23
M  V30 20 1 12 13
M  V30 21 1 12 24
M  V30 22 1 12 25
M  V30 23 1 13 14
M  V30 24 1 13 16
M  V30 25 1 14 15
M  V30 26 1 14 26
M  V30 27 1 14 27
M  V30 28 1 15 28
M  V30 29 1 15 29
M  V30 30 2 16 17
M  V30 31 1 16 30
M  V30 END BOND
M  V30 END CTAB
M  END
