/home/lukas/Desktop/db_new/amines3f/amine3f_1.pdb
 OpenBabel08101621353D

  0  0  0     0  0            999 V3000
M  V30 BEGIN CTAB
M  V30 COUNTS 15 14 0 0 0
M  V30 BEGIN ATOM
M  V30 1 N -1.861 1.26 -0.719 0
M  V30 2 C -0.498 1.555 -0.125 0
M  V30 3 C 0.673 1.075 -1.034 0
M  V30 4 N 0.381 0.386 -2.127 0
M  V30 5 O 1.834 1.362 -0.761 0
M  V30 6 C -0.351 0.912 1.289 0
M  V30 7 N 0.715 1.201 2.022 0
M  V30 8 O -1.219 0.17 1.737 0
M  V30 9 H -2.187 0.404 -0.271 0
M  V30 10 H -2.538 1.95 -0.418 0
M  V30 11 H -0.351 2.629 0.001 0
M  V30 12 H 1.113 0.089 -2.746 0
M  V30 13 H -0.603 0.284 -2.329 0
M  V30 14 H 0.777 0.774 2.931 0
M  V30 15 H 1.51 1.654 1.595 0
M  V30 END ATOM
M  V30 BEGIN BOND
M  V30 1 1 1 2
M  V30 2 1 1 9
M  V30 3 1 1 10
M  V30 4 1 2 3
M  V30 5 1 2 6
M  V30 6 1 2 11
M  V30 7 1 3 4
M  V30 8 2 3 5
M  V30 9 1 4 12
M  V30 10 1 4 13
M  V30 11 1 6 7
M  V30 12 2 6 8
M  V30 13 1 7 14
M  V30 14 1 7 15
M  V30 END BOND
M  V30 END CTAB
M  END
