/home/lukas/Desktop/db_new/amines3f/amine3f_2.pdb
 OpenBabel08101621303D

  0  0  0     0  0            999 V3000
M  V30 BEGIN CTAB
M  V30 COUNTS 27 27 0 0 0
M  V30 BEGIN ATOM
M  V30 1 N -2.862 1.404 0.66 0
M  V30 2 C -1.748 1.586 -0.251 0
M  V30 3 C -0.603 0.673 0.147 0
M  V30 4 C 0.38 1.122 1.034 0
M  V30 5 C 1.436 0.284 1.405 0
M  V30 6 C 2.499 0.775 2.369 0
M  V30 7 N 2.116 0.454 3.731 0
M  V30 8 C 1.504 -1.012 0.883 0
M  V30 9 C 0.526 -1.47 -0.004 0
M  V30 10 C 0.608 -2.875 -0.572 0
M  V30 11 N 1.371 -2.862 -1.806 0
M  V30 12 C -0.526 -0.624 -0.369 0
M  V30 13 H -2.57 1.606 1.606 0
M  V30 14 H -3.163 0.44 0.647 0
M  V30 15 H -2.06 1.37 -1.275 0
M  V30 16 H -1.418 2.627 -0.24 0
M  V30 17 H 0.324 2.124 1.435 0
M  V30 18 H 2.635 1.854 2.26 0
M  V30 19 H 3.461 0.316 2.13 0
M  V30 20 H 1.227 0.881 3.948 0
M  V30 21 H 1.992 -0.544 3.826 0
M  V30 22 H 2.319 -1.662 1.166 0
M  V30 23 H -0.396 -3.265 -0.755 0
M  V30 24 H 1.075 -3.546 0.152 0
M  V30 25 H 0.937 -2.239 -2.472 0
M  V30 26 H 2.298 -2.499 -1.632 0
M  V30 27 H -1.283 -0.975 -1.056 0
M  V30 END ATOM
M  V30 BEGIN BOND
M  V30 1 1 1 2
M  V30 2 1 1 13
M  V30 3 1 1 14
M  V30 4 1 2 3
M  V30 5 1 2 15
M  V30 6 1 2 16
M  V30 7 2 3 4
M  V30 8 1 3 12
M  V30 9 1 4 5
M  V30 10 1 4 17
M  V30 11 1 5 6
M  V30 12 2 5 8
M  V30 13 1 6 7
M  V30 14 1 6 18
M  V30 15 1 6 19
M  V30 16 1 7 20
M  V30 17 1 7 21
M  V30 18 1 8 9
M  V30 19 1 8 22
M  V30 20 1 9 10
M  V30 21 2 9 12
M  V30 22 1 10 11
M  V30 23 1 10 23
M  V30 24 1 10 24
M  V30 25 1 11 25
M  V30 26 1 11 26
M  V30 27 1 12 27
M  V30 END BOND
M  V30 END CTAB
M  END
