/home/lukas/Desktop/db_new/amines3f/amine3f_0.pdb
 OpenBabel08101621203D

  0  0  0     0  0            999 V3000
M  V30 BEGIN CTAB
M  V30 COUNTS 23 22 0 0 0
M  V30 BEGIN ATOM
M  V30 1 C 0.914 -0.225 -0.387 0
M  V30 2 C 0.179 0.939 0.335 0
M  V30 3 C -0.68 0.372 1.509 0
M  V30 4 N -1.742 -0.539 1.088 0
M  V30 5 C -0.756 1.683 -0.67 0
M  V30 6 N -0.045 2.321 -1.772 0
M  V30 7 C 1.222 1.952 0.906 0
M  V30 8 N 2.139 1.378 1.888 0
M  V30 9 H 1.593 0.141 -1.156 0
M  V30 10 H 1.511 -0.809 0.314 0
M  V30 11 H 0.212 -0.911 -0.86 0
M  V30 12 H -1.12 1.195 2.076 0
M  V30 13 H -0.034 -0.166 2.206 0
M  V30 14 H -2.43 -0.052 0.532 0
M  V30 15 H -2.232 -0.913 1.889 0
M  V30 16 H -1.336 2.445 -0.143 0
M  V30 17 H -1.48 0.982 -1.088 0
M  V30 18 H -0.693 2.677 -2.461 0
M  V30 19 H 0.52 1.628 -2.246 0
M  V30 20 H 1.818 2.365 0.089 0
M  V30 21 H 0.703 2.803 1.353 0
M  V30 22 H 1.636 1.065 2.706 0
M  V30 23 H 2.799 2.075 2.203 0
M  V30 END ATOM
M  V30 BEGIN BOND
M  V30 1 1 1 2
M  V30 2 1 1 9
M  V30 3 1 1 10
M  V30 4 1 1 11
M  V30 5 1 2 3
M  V30 6 1 2 5
M  V30 7 1 2 7
M  V30 8 1 3 4
M  V30 9 1 3 12
M  V30 10 1 3 13
M  V30 11 1 4 14
M  V30 12 1 4 15
M  V30 13 1 5 6
M  V30 14 1 5 16
M  V30 15 1 5 17
M  V30 16 1 6 18
M  V30 17 1 6 19
M  V30 18 1 7 8
M  V30 19 1 7 20
M  V30 20 1 7 21
M  V30 21 1 8 22
M  V30 22 1 8 23
M  V30 END BOND
M  V30 END CTAB
M  END
