
     RDKit          3D

  0  0  0  0  0  0  0  0  0  0999 V3000
M  V30 BEGIN CTAB
M  V30 COUNTS 24 25 0 0 0
M  V30 BEGIN ATOM
M  V30 1 O 3.4167 -2.6410 2.4506 0
M  V30 2 C 2.6947 -1.6943 2.7628 0
M  V30 3 C 2.0380 -0.7841 1.7852 0
M  V30 4 C 1.2498 0.2661 2.2420 0
M  V30 5 C 0.6285 1.1256 1.3449 0
M  V30 6 C 0.7741 0.9693 -0.0677 0
M  V30 7 C 0.1411 1.8483 -1.0135 0
M  V30 8 C -0.7606 2.9713 -0.6149 0
M  V30 9 O -1.6281 3.4610 -1.3390 0
M  V30 10 C 0.2624 1.5757 -2.3775 0
M  V30 11 C 1.0441 0.5319 -2.8410 0
M  V30 12 C 1.7477 -0.2997 -1.9673 0
M  V30 13 C 2.5304 -1.4241 -2.5683 0
M  V30 14 O 2.3663 -1.8541 -3.7109 0
M  V30 15 C 1.5872 -0.1159 -0.5494 0
M  V30 16 C 2.2045 -0.9748 0.4126 0
M  V30 17 H 2.4932 -1.4679 3.8103 0
M  V30 18 H 1.1032 0.4312 3.3019 0
M  V30 19 H 0.0209 1.9184 1.7509 0
M  V30 20 H -0.5675 3.3967 0.3685 0
M  V30 21 H -0.2539 2.1860 -3.1089 0
M  V30 22 H 1.1008 0.3771 -3.9119 0
M  V30 23 H 3.3282 -1.8244 -1.9446 0
M  V30 24 H 2.8141 -1.8035 0.0828 0
M  V30 END ATOM
M  V30 BEGIN BOND
M  V30 0 2 1 2
M  V30 1 1 2 3
M  V30 2 1 2 17
M  V30 3 2 3 4
M  V30 4 1 3 16
M  V30 5 1 4 5
M  V30 6 1 4 18
M  V30 7 2 5 6
M  V30 8 1 5 19
M  V30 9 1 6 7
M  V30 10 1 6 15
M  V30 11 1 7 8
M  V30 12 2 7 10
M  V30 13 2 8 9
M  V30 14 1 8 20
M  V30 15 1 10 11
M  V30 16 1 10 21
M  V30 17 2 11 12
M  V30 18 1 11 22
M  V30 19 1 12 13
M  V30 20 1 12 15
M  V30 21 2 13 14
M  V30 22 1 13 23
M  V30 23 2 15 16
M  V30 24 1 16 24
M  V30 END BOND
M  V30 END CTAB
M  END

$$$$
