
     RDKit          3D

  0  0  0  0  0  0  0  0  0  0999 V3000
M  V30 BEGIN CTAB
M  V30 COUNTS 16 16 0 0 0
M  V30 BEGIN ATOM
M  V30 1 N 2.33073 -0.0564021 -1.14777 0
M  V30 2 C 1.05406 -0.17537 -0.924384 0
M  V30 3 C 0.66241 -1.32265 -0.047147 0
M  V30 4 N -0.611179 -1.11953 0.588137 0
M  V30 5 C -1.54939 -0.372062 -0.207799 0
M  V30 6 C -0.99991 1.01088 -0.342364 0
M  V30 7 N 0.3664 1.07178 -0.76498 0
M  V30 8 N -1.61209 2.04031 0.150398 0
M  V30 9 H 0.634837 -2.26859 -0.631656 0
M  V30 10 H 1.42342 -1.43144 0.766458 0
M  V30 11 H -0.444273 -0.556571 1.46276 0
M  V30 12 H -1.73501 -0.816533 -1.20441 0
M  V30 13 H -2.48888 -0.295311 0.362454 0
M  V30 14 H 0.807162 1.99598 -0.92025 0
M  V30 15 Y 3.08194 0.521265 0.608408 0
M  V30 16 Y -0.920224 1.77423 2.25214 0
M  V30 END ATOM
M  V30 BEGIN BOND
M  V30 1 2 1 2
M  V30 2 1 2 3
M  V30 3 1 3 4
M  V30 4 1 4 5
M  V30 5 1 5 6
M  V30 6 1 6 7
M  V30 7 2 6 8
M  V30 8 1 7 2
M  V30 9 1 3 9
M  V30 10 1 3 10
M  V30 11 1 4 11
M  V30 12 1 5 12
M  V30 13 1 5 13
M  V30 14 1 7 14
M  V30 15 1 15 1
M  V30 16 1 16 8
M  V30 END BOND
M  V30 END CTAB
M  END
