
     RDKit          3D

  0  0  0  0  0  0  0  0  0  0999 V3000
M  V30 BEGIN CTAB
M  V30 COUNTS 16 16 0 0 0
M  V30 BEGIN ATOM
M  V30 1 Y -2.3678 1.2888 -1.7419 0 VAL=1
M  V30 2 N -1.765 0.3766 -0.9175 0
M  V30 3 C -0.4846 0.4733 -0.6949 0
M  V30 4 C 0.4424 1.5847 -1.2336 0
M  V30 5 N 1.6024 1.7609 -0.3356 0
M  V30 6 C 2.3737 0.5097 -0.1851 0
M  V30 7 C 1.4665 -0.6127 0.3644 0
M  V30 8 N 0.1328 -0.4971 0.0561 0
M  V30 9 N 1.8655 -1.6442 1.0535 0
M  V30 10 Y 3.2048 -1.8132 1.2835 0 VAL=1
M  V30 11 H 0.7669 1.3216 -2.246 0
M  V30 12 H -0.0945 2.5366 -1.2628 0
M  V30 13 H 2.2151 2.4716 -0.7355 0
M  V30 14 H 2.7962 0.192 -1.1443 0
M  V30 15 H 3.1861 0.7105 0.5183 0
M  V30 16 H -0.4645 -1.2363 0.3984 0
M  V30 END ATOM
M  V30 BEGIN BOND
M  V30 1 1 1 2
M  V30 2 2 2 3
M  V30 3 1 3 4
M  V30 4 1 4 5
M  V30 5 1 5 6
M  V30 6 1 6 7
M  V30 7 1 7 8
M  V30 8 2 7 9
M  V30 9 1 9 10
M  V30 10 1 8 3
M  V30 11 1 4 11
M  V30 12 1 4 12
M  V30 13 1 5 13
M  V30 14 1 6 14
M  V30 15 1 6 15
M  V30 16 1 8 16
M  V30 END BOND
M  V30 END CTAB
M  END
