
     RDKit          3D

  0  0  0  0  0  0  0  0  0  0999 V3000
M  V30 BEGIN CTAB
M  V30 COUNTS 16 16 0 0 0
M  V30 BEGIN ATOM
M  V30 1 N 2.10489 1.14835 1.36305 0
M  V30 2 C 1.15486 0.661556 0.662723 0
M  V30 3 C 1.20062 -0.70704 0.0799409 0
M  V30 4 N 0.0294157 -1.40647 0.521285 0
M  V30 5 C -1.1018 -0.850794 -0.209386 0
M  V30 6 C -1.22231 0.609876 0.102374 0
M  V30 7 N -0.091182 1.3591 0.562825 0
M  V30 8 N -2.11263 1.23795 -0.609515 0
M  V30 9 H 2.14831 -1.23254 0.291178 0
M  V30 10 H 1.16295 -0.564848 -1.02106 0
M  V30 11 H 0.0655476 -2.42316 0.331123 0
M  V30 12 H -2.04347 -1.3601 0.108181 0
M  V30 13 H -0.93068 -0.908034 -1.30161 0
M  V30 14 H -0.0541519 2.4108 0.499441 0
M  V30 15 Y 3.42969 0.993379 -0.765179 0
M  V30 16 Y -3.74008 1.03198 -0.615359 0
M  V30 END ATOM
M  V30 BEGIN BOND
M  V30 1 2 1 2
M  V30 2 1 2 3
M  V30 3 1 3 4
M  V30 4 1 4 5
M  V30 5 1 5 6
M  V30 6 1 6 7
M  V30 7 2 6 8
M  V30 8 1 7 2
M  V30 9 1 3 9
M  V30 10 1 3 10
M  V30 11 1 4 11
M  V30 12 1 5 12
M  V30 13 1 5 13
M  V30 14 1 7 14
M  V30 15 1 15 1
M  V30 16 1 16 8
M  V30 END BOND
M  V30 END CTAB
M  END
