
     RDKit          3D

 46 52  0  0  0  0  0  0  0  0999 V2000
   -3.3690    1.2989    4.4632 O   0  0  0  0  0  0  0  0  0  0  0  0
   -2.6069    2.0306    3.8383 C   0  0  0  0  0  0  0  0  0  0  0  0
   -1.8836    1.7384    2.5423 C   0  0  0  0  0  0  0  0  0  0  0  0
   -2.1344    2.8919    1.5426 C   0  0  0  0  0  0  0  0  0  0  0  0
   -2.6297    2.1489    0.2859 C   0  0  0  0  0  0  0  0  0  0  0  0
   -3.5029    1.0693    0.9272 C   0  0  0  0  0  0  0  0  0  0  0  0
   -2.3531    0.4919    1.7619 C   0  0  0  0  0  0  0  0  0  0  0  0
   -1.2516    0.2081    0.7080 C   0  0  0  0  0  0  0  0  0  0  0  0
   -1.4235    1.3731   -0.2793 C   0  0  0  0  0  0  0  0  0  0  0  0
   -1.8002    0.7402   -1.9499 S   0  0  0  0  0  0  0  0  0  0  0  0
   -0.4097    1.0614   -2.9419 N   0  0  0  0  0  0  0  0  0  0  0  0
    0.6239   -0.1826   -3.5559 S   0  0  0  0  0  0  0  0  0  0  0  0
    0.1422   -1.8371   -3.0154 N   0  0  0  0  0  0  0  0  0  0  0  0
    1.0395   -2.1259   -1.4423 S   0  0  0  0  0  0  0  0  0  0  0  0
   -0.1439   -2.3643   -0.1808 N   0  0  0  0  0  0  0  0  0  0  0  0
   -1.5708   -1.3658   -0.1314 S   0  0  0  0  0  0  0  0  0  0  0  0
   -2.1603   -0.9349   -1.7014 N   0  0  0  0  0  0  0  0  0  0  0  0
    1.8339   -0.5085   -1.2617 C   0  0  0  0  0  0  0  0  0  0  0  0
    3.1801   -0.2498   -0.5720 C   0  0  0  0  0  0  0  0  0  0  0  0
    4.2020   -0.1159   -1.7374 C   0  0  0  0  0  0  0  0  0  0  0  0
    3.2802    0.8180   -2.5877 C   0  0  0  0  0  0  0  0  0  0  0  0
    3.0025    1.9496   -1.5701 C   0  0  0  0  0  0  0  0  0  0  0  0
    3.2141    1.2575   -0.1970 C   0  0  0  0  0  0  0  0  0  0  0  0
    2.2638    1.7214    0.8714 C   0  0  0  0  0  0  0  0  0  0  0  0
    2.6418    2.4132    1.8269 O   0  0  0  0  0  0  0  0  0  0  0  0
    2.1841   -0.2003   -2.7026 C   0  0  0  0  0  0  0  0  0  0  0  0
   -2.3515    3.0139    4.2715 H   0  0  0  0  0  0  0  0  0  0  0  0
   -0.8197    1.6747    2.8011 H   0  0  0  0  0  0  0  0  0  0  0  0
   -2.9020    3.5887    1.9001 H   0  0  0  0  0  0  0  0  0  0  0  0
   -1.2219    3.4668    1.3509 H   0  0  0  0  0  0  0  0  0  0  0  0
   -3.1425    2.8024   -0.4240 H   0  0  0  0  0  0  0  0  0  0  0  0
   -4.3130    1.4817    1.5390 H   0  0  0  0  0  0  0  0  0  0  0  0
   -3.9372    0.3660    0.2129 H   0  0  0  0  0  0  0  0  0  0  0  0
   -2.6289   -0.3579    2.3913 H   0  0  0  0  0  0  0  0  0  0  0  0
   -0.2712    0.1451    1.1800 H   0  0  0  0  0  0  0  0  0  0  0  0
   -0.5469    2.0207   -0.3538 H   0  0  0  0  0  0  0  0  0  0  0  0
    1.0683    0.1472   -0.8561 H   0  0  0  0  0  0  0  0  0  0  0  0
    3.4539   -0.9253    0.2395 H   0  0  0  0  0  0  0  0  0  0  0  0
    5.1473    0.3626   -1.4551 H   0  0  0  0  0  0  0  0  0  0  0  0
    4.4408   -1.0778   -2.2057 H   0  0  0  0  0  0  0  0  0  0  0  0
    3.7064    1.1503   -3.5358 H   0  0  0  0  0  0  0  0  0  0  0  0
    3.7357    2.7558   -1.6867 H   0  0  0  0  0  0  0  0  0  0  0  0
    2.0045    2.3823   -1.6904 H   0  0  0  0  0  0  0  0  0  0  0  0
    4.2181    1.5090    0.1768 H   0  0  0  0  0  0  0  0  0  0  0  0
    1.2087    1.4735    0.7487 H   0  0  0  0  0  0  0  0  0  0  0  0
    2.6589   -1.0532   -3.2202 H   0  0  0  0  0  0  0  0  0  0  0  0
  1  2  2  0
  2  3  1  0
  3  4  1  0
  4  5  1  0
  5  6  1  0
  6  7  1  0
  7  8  1  0
  8  9  1  0
  9 10  1  0
 10 11  2  0
 11 12  1  0
 12 13  2  0
 13 14  1  0
 14 15  2  0
 15 16  1  0
 16 17  2  0
 14 18  1  0
 18 19  1  0
 19 20  1  0
 20 21  1  0
 21 22  1  0
 22 23  1  0
 23 24  1  0
 24 25  2  0
 21 26  1  0
  7  3  1  0
 16  8  1  0
 26 18  1  0
  9  5  1  0
 17 10  1  0
 23 19  1  0
 26 12  1  0
  2 27  1  0
  3 28  1  0
  4 29  1  0
  4 30  1  0
  5 31  1  0
  6 32  1  0
  6 33  1  0
  7 34  1  0
  8 35  1  0
  9 36  1  0
 18 37  1  0
 19 38  1  0
 20 39  1  0
 20 40  1  0
 21 41  1  0
 22 42  1  0
 22 43  1  0
 23 44  1  0
 24 45  1  0
 26 46  1  0
M  END

