
 OpenBabel08041616353D

 18 13  0  0  0  0  0  0  0  0999 V2000
  -10.7672    4.1225    0.0000 C   0  0  0  0  0  0  0  0  0  0  0  0
   -9.6972    4.1225    0.0000 H   0  0  0  0  0  0  0  0  0  0  0  0
  -11.1239    4.9224    0.6148 H   0  0  0  0  0  0  0  0  0  0  0  0
  -11.1239    3.1902    0.3853 H   0  0  0  0  0  0  0  0  0  0  0  0
  -11.1239    4.2551   -1.0001 H   0  0  0  0  0  0  0  0  0  0  0  0
   -6.9710    4.2252    0.0000 N   0  0  0  0  0  0  0  0  0  0  0  0
   -5.9510    4.2252    0.0000 H   0  0  0  0  0  0  0  0  0  0  0  0
   -7.3110    4.7978    0.7726 H   0  0  0  0  0  0  0  0  0  0  0  0
   -7.3110    3.2698    0.1095 H   0  0  0  0  0  0  0  0  0  0  0  0
   -3.1068    4.5673    0.0000 O   0  0  0  0  0  0  0  0  0  0  0  0
   -2.1368    4.5673    0.0000 H   0  0  0  0  0  0  0  0  0  0  0  0
   -3.4301    3.9700   -0.6926 H   0  0  0  0  0  0  0  0  0  0  0  0
    0.3320    4.6186    0.0000 F   0  0  0  0  0  0  0  0  0  0  0  0
    1.2120    4.6186    0.0000 H   0  0  0  0  0  0  0  0  0  0  0  0
    3.2940    4.6699    0.0000 P   0  0  0  0  0  0  0  0  0  0  0  0
    4.6740    4.6699    0.0000 H   0  0  0  0  0  0  0  0  0  0  0  0
    2.8340    3.6969    0.8637 H   0  0  0  0  0  0  0  0  0  0  0  0
    2.8340    4.4085   -1.2745 H   0  0  0  0  0  0  0  0  0  0  0  0
  1  2  1  0  0  0  0
  1  3  1  0  0  0  0
  1  4  1  0  0  0  0
  1  5  1  0  0  0  0
  6  7  1  0  0  0  0
  6  8  1  0  0  0  0
  6  9  1  0  0  0  0
 10 11  1  0  0  0  0
 10 12  1  0  0  0  0
 13 14  1  0  0  0  0
 15 16  1  0  0  0  0
 15 17  1  0  0  0  0
 15 18  1  0  0  0  0
M  END
