
 OpenBabel08041616423D

 15  0  0  0  0  0  0  0  0  0999 V2000
   -5.7964    4.4818    0.0000 Y   0  0  0  0  0 15  0  0  0  0  0  0
   -3.2940    4.6357    0.0000 Zr  0  0  0  0  0 15  0  0  0  0  0  0
   -1.1831    4.9436    0.0000 Nb  0  0  0  0  0 15  0  0  0  0  0  0
    0.4511    4.8752    0.0000 Mo  0  0  0  0  0 15  0  0  0  0  0  0
   -5.9156    2.4633    0.0000 Tc  0  0  0  0  0 15  0  0  0  0  0  0
   -3.6515    2.5317    0.0000 Ru  0  0  0  0  0 15  0  0  0  0  0  0
   -1.3193    2.4975    0.0000 Rh  0  0  0  0  0 15  0  0  0  0  0  0
    0.7235    2.6514    0.0000 Rh  0  0  0  0  0 15  0  0  0  0  0  0
   -6.5284    0.9237    0.0000 Rh  0  0  0  0  0 15  0  0  0  0  0  0
   -4.2814    0.8040    0.0000 Rh  0  0  0  0  0 15  0  0  0  0  0  0
   -1.6598    0.7013    0.0000 Rh  0  0  0  0  0 15  0  0  0  0  0  0
    1.8470    0.8382    0.0000 Rh  0  0  0  0  0 15  0  0  0  0  0  0
   -6.7838   -0.3079    0.0000 Rh  0  0  0  0  0 15  0  0  0  0  0  0
   -4.7069   -0.5474    0.0000 Rh  0  0  0  0  0 15  0  0  0  0  0  0
   -2.9706   -0.6842    0.0000 Rh  0  0  0  0  0 15  0  0  0  0  0  0
M  END
