/home/lukas/Desktop/db_new/aldehydes2f/aldehyde2f_8.pdb
 OpenBabel08101617233D

  0  0  0     0  0            999 V3000
M  V30 BEGIN CTAB
M  V30 COUNTS 23 24 0 0 0
M  V30 BEGIN ATOM
M  V30 1 C 3.312 0.022 -0.724 0
M  V30 2 N 2.155 -0.814 -0.345 0
M  V30 3 C 2.247 -1.574 0.793 0
M  V30 4 O 3.205 -1.643 1.556 0
M  V30 5 N 1.143 -2.311 1.068 0
M  V30 6 C -0.035 -2.428 0.417 0
M  V30 7 O -0.913 -3.167 0.851 0
M  V30 8 C -0.099 -1.575 -0.83 0
M  V30 9 C 1.004 -0.79 -1.175 0
M  V30 10 N 0.982 -0.017 -2.297 0
M  V30 11 C -0.143 -0.021 -3.078 0
M  V30 12 C 0.031 0.781 -4.332 0
M  V30 13 O -0.682 0.761 -5.334 0
M  V30 14 C -1.272 -0.805 -2.701 0
M  V30 15 C -2.618 -0.822 -3.348 0
M  V30 16 O -3.035 -0.036 -4.195 0
M  V30 17 N -1.231 -1.584 -1.581 0
M  V30 18 H 3.018 1.071 -0.766 0
M  V30 19 H 3.674 -0.266 -1.711 0
M  V30 20 H 4.15 -0.057 -0.029 0
M  V30 21 H 1.215 -2.867 1.902 0
M  V30 22 H 0.917 1.416 -4.321 0
M  V30 23 H -3.276 -1.611 -2.98 0
M  V30 END ATOM
M  V30 BEGIN BOND
M  V30 1 1 1 2
M  V30 2 1 1 18
M  V30 3 1 1 19
M  V30 4 1 1 20
M  V30 5 1 2 3
M  V30 6 1 2 9
M  V30 7 2 3 4
M  V30 8 1 3 5
M  V30 9 1 5 6
M  V30 10 1 5 21
M  V30 11 2 6 7
M  V30 12 1 6 8
M  V30 13 2 8 9
M  V30 14 1 8 17
M  V30 15 1 9 10
M  V30 16 2 10 11
M  V30 17 1 11 12
M  V30 18 1 11 14
M  V30 19 2 12 13
M  V30 20 1 12 22
M  V30 21 1 14 15
M  V30 22 2 14 17
M  V30 23 2 15 16
M  V30 24 1 15 23
M  V30 END BOND
M  V30 END CTAB
M  END
