/home/lukas/Desktop/db_new/aldehydes2f/aldehyde2f_20.pdb
 OpenBabel08101618093D

  0  0  0     0  0            999 V3000
M  V30 BEGIN CTAB
M  V30 COUNTS 35 38 0 0 1
M  V30 BEGIN ATOM
M  V30 1 O 5.216 -0.81 1.121 0
M  V30 2 C 4.306 -1.59 0.852 0
M  V30 3 C 3.108 -1.112 0.037 0
M  V30 4 C 1.832 -0.871 0.887 0
M  V30 5 C 1.909 0.365 1.781 0
M  V30 6 C 1.485 1.494 0.864 0
M  V30 7 N 0.521 0.821 -0.008 0
M  V30 8 C 0.621 -0.56 -0.004 0
M  V30 9 C -0.248 -1.383 -0.654 0
M  V30 10 C -0.098 -2.847 -0.565 0
M  V30 11 O 0.946 -3.432 -0.274 0
M  V30 12 C -1.343 -0.754 -1.447 0
M  V30 13 C -1.429 0.664 -1.45 0
M  V30 14 C -2.435 1.325 -2.183 0
M  V30 15 C -3.331 0.548 -2.901 0
M  V30 16 O -4.371 0.953 -3.675 0
M  V30 17 C -4.954 -0.218 -4.187 0
M  V30 18 O -4.24 -1.321 -3.693 0
M  V30 19 C -3.253 -0.812 -2.911 0
M  V30 20 C -2.277 -1.498 -2.202 0
M  V30 21 C -0.446 1.523 -0.669 0
M  V30 22 O -0.505 2.754 -0.617 0
M  V30 23 H 4.281 -2.632 1.173 0
M  V30 24 H 2.919 -1.869 -0.723 0
M  V30 25 H 3.395 -0.206 -0.496 0
M  V30 26 H 1.641 -1.751 1.507 0
M  V30 27 H 1.202 0.275 2.609 0
M  V30 28 H 2.895 0.532 2.219 0
M  V30 29 H 1.053 2.342 1.401 0
M  V30 30 H 2.323 1.854 0.264 0
M  V30 31 H -0.99 -3.435 -0.774 0
M  V30 32 H -2.514 2.404 -2.193 0
M  V30 33 H -6.003 -0.279 -3.892 0
M  V30 34 H -4.928 -0.206 -5.278 0
M  V30 35 H -2.259 -2.574 -2.258 0
M  V30 END ATOM
M  V30 BEGIN BOND
M  V30 1 2 1 2
M  V30 2 1 2 3
M  V30 3 1 2 23
M  V30 4 1 3 4
M  V30 5 1 3 24
M  V30 6 1 3 25
M  V30 7 1 4 5
M  V30 8 1 4 8
M  V30 9 1 4 26
M  V30 10 1 5 6
M  V30 11 1 5 27
M  V30 12 1 5 28
M  V30 13 1 6 7
M  V30 14 1 6 29
M  V30 15 1 6 30
M  V30 16 1 7 8
M  V30 17 1 7 21
M  V30 18 2 8 9
M  V30 19 1 9 10
M  V30 20 1 9 12
M  V30 21 2 10 11
M  V30 22 1 10 31
M  V30 23 2 12 13
M  V30 24 1 12 20
M  V30 25 1 13 14
M  V30 26 1 13 21
M  V30 27 2 14 15
M  V30 28 1 14 32
M  V30 29 1 15 16
M  V30 30 1 15 19
M  V30 31 1 16 17
M  V30 32 1 17 18
M  V30 33 1 17 33
M  V30 34 1 17 34
M  V30 35 1 18 19
M  V30 36 2 19 20
M  V30 37 1 20 35
M  V30 38 2 21 22
M  V30 END BOND
M  V30 END CTAB
M  END
