/home/lukas/Desktop/db_new/aldehydes2f/aldehyde2f_16.pdb
 OpenBabel08101618383D

  0  0  0     0  0            999 V3000
M  V30 BEGIN CTAB
M  V30 COUNTS 27 28 0 0 0
M  V30 BEGIN ATOM
M  V30 1 O 1.31 2.616 -2.282 0
M  V30 2 C 0.511 2.611 -1.344 0
M  V30 3 N 0.314 1.597 -0.455 0
M  V30 4 C -0.789 1.806 0.493 0
M  V30 5 C -2.127 1.246 -0.026 0
M  V30 6 C -1.992 -0.11 -0.745 0
M  V30 7 N -0.994 -0.98 -0.107 0
M  V30 8 C -1.42 -1.801 0.89 0
M  V30 9 O -2.592 -1.925 1.248 0
M  V30 10 C 0.406 -0.896 -0.365 0
M  V30 11 C 1.186 -2.065 -0.492 0
M  V30 12 C 2.55 -2.023 -0.752 0
M  V30 13 C 3.179 -0.798 -0.9 0
M  V30 14 C 2.436 0.371 -0.803 0
M  V30 15 C 1.048 0.371 -0.56 0
M  V30 16 H -0.154 3.466 -1.142 0
M  V30 17 H -0.518 1.287 1.415 0
M  V30 18 H -0.903 2.854 0.779 0
M  V30 19 H -2.811 1.136 0.818 0
M  V30 20 H -2.597 1.958 -0.705 0
M  V30 21 H -2.967 -0.599 -0.812 0
M  V30 22 H -1.671 0.05 -1.776 0
M  V30 23 H -0.59 -2.349 1.366 0
M  V30 24 H 0.723 -3.037 -0.406 0
M  V30 25 H 3.116 -2.939 -0.844 0
M  V30 26 H 4.24 -0.749 -1.102 0
M  V30 27 H 2.958 1.309 -0.929 0
M  V30 END ATOM
M  V30 BEGIN BOND
M  V30 1 2 1 2
M  V30 2 1 2 3
M  V30 3 1 2 16
M  V30 4 1 3 4
M  V30 5 1 3 15
M  V30 6 1 4 5
M  V30 7 1 4 17
M  V30 8 1 4 18
M  V30 9 1 5 6
M  V30 10 1 5 19
M  V30 11 1 5 20
M  V30 12 1 6 7
M  V30 13 1 6 21
M  V30 14 1 6 22
M  V30 15 1 7 8
M  V30 16 1 7 10
M  V30 17 2 8 9
M  V30 18 1 8 23
M  V30 19 2 10 11
M  V30 20 1 10 15
M  V30 21 1 11 12
M  V30 22 1 11 24
M  V30 23 2 12 13
M  V30 24 1 12 25
M  V30 25 1 13 14
M  V30 26 1 13 26
M  V30 27 2 14 15
M  V30 28 1 14 27
M  V30 END BOND
M  V30 END CTAB
M  END
