/home/lukas/Desktop/db_new/aldehydes2f/aldehyde2f_12.pdb
 OpenBabel08101619493D

  0  0  0     0  0            999 V3000
M  V30 BEGIN CTAB
M  V30 COUNTS 30 31 0 0 0
M  V30 BEGIN ATOM
M  V30 1 Br -1.929 1.463 -4.251 0
M  V30 2 C -0.531 0.545 -3.328 0
M  V30 3 C 0.595 0.016 -3.982 0
M  V30 4 C 0.801 0.127 -5.45 0
M  V30 5 O 0.637 1.155 -6.104 0
M  V30 6 C 1.541 -0.692 -3.235 0
M  V30 7 C 1.385 -0.842 -1.857 0
M  V30 8 C 0.281 -0.302 -1.184 0
M  V30 9 C -0.668 0.388 -1.95 0
M  V30 10 N 0.132 -0.45 0.198 0
M  V30 11 C 0.967 -1.352 1.023 0
M  V30 12 C 0.269 -1.892 2.295 0
M  V30 13 N -0.168 -0.748 3.114 0
M  V30 14 C -0.462 0.538 2.465 0
M  V30 15 C -0.885 0.265 0.999 0
M  V30 16 C -0.3 -0.873 4.45 0
M  V30 17 O -0.08 -1.912 5.069 0
M  V30 18 H 1.144 -0.791 -5.929 0
M  V30 19 H 2.418 -1.122 -3.702 0
M  V30 20 H 2.151 -1.371 -1.313 0
M  V30 21 H -1.55 0.796 -1.485 0
M  V30 22 H 1.241 -2.231 0.439 0
M  V30 23 H 1.898 -0.845 1.283 0
M  V30 24 H -0.612 -2.473 2.017 0
M  V30 25 H 0.929 -2.56 2.854 0
M  V30 26 H 0.445 1.146 2.47 0
M  V30 27 H -1.236 1.101 2.991 0
M  V30 28 H -1.827 -0.287 0.965 0
M  V30 29 H -1.077 1.243 0.558 0
M  V30 30 H -0.628 0.065 4.927 0
M  V30 END ATOM
M  V30 BEGIN BOND
M  V30 1 1 1 2
M  V30 2 2 2 3
M  V30 3 1 2 9
M  V30 4 1 3 4
M  V30 5 1 3 6
M  V30 6 2 4 5
M  V30 7 1 4 18
M  V30 8 2 6 7
M  V30 9 1 6 19
M  V30 10 1 7 8
M  V30 11 1 7 20
M  V30 12 2 8 9
M  V30 13 1 8 10
M  V30 14 1 9 21
M  V30 15 1 10 11
M  V30 16 1 10 15
M  V30 17 1 11 12
M  V30 18 1 11 22
M  V30 19 1 11 23
M  V30 20 1 12 13
M  V30 21 1 12 24
M  V30 22 1 12 25
M  V30 23 1 13 14
M  V30 24 1 13 16
M  V30 25 1 14 15
M  V30 26 1 14 26
M  V30 27 1 14 27
M  V30 28 1 15 28
M  V30 29 1 15 29
M  V30 30 2 16 17
M  V30 31 1 16 30
M  V30 END BOND
M  V30 END CTAB
M  END
