/home/lukas/Desktop/db_new/aldehydes2f/aldehyde2f_9.pdb
 OpenBabel08101617193D

  0  0  0     0  0            999 V3000
M  V30 BEGIN CTAB
M  V30 COUNTS 40 42 0 0 1
M  V30 BEGIN ATOM
M  V30 1 O -4.189 -2.871 -1.872 0
M  V30 2 C -4.323 -2.085 -0.936 0
M  V30 3 N -3.527 -1.014 -0.72 0
M  V30 4 C -3.767 -0.135 0.434 0
M  V30 5 C -2.511 0.185 1.277 0
M  V30 6 N -1.548 1.064 0.595 0
M  V30 7 C -1.852 2.365 0.379 0
M  V30 8 O -1.095 3.181 -0.143 0
M  V30 9 C -0.191 0.544 0.309 0
M  V30 10 C 0.711 0.801 1.531 0
M  V30 11 C 0.626 -0.006 2.672 0
M  V30 12 C 1.464 0.227 3.759 0
M  V30 13 C 2.389 1.268 3.706 0
M  V30 14 C 2.484 2.075 2.574 0
M  V30 15 C 1.648 1.839 1.486 0
M  V30 16 C -0.085 -0.877 -0.325 0
M  V30 17 C -1.089 -1.465 -1.137 0
M  V30 18 C -2.36 -0.74 -1.582 0
M  V30 19 C -0.904 -2.756 -1.649 0
M  V30 20 C 0.245 -3.485 -1.365 0
M  V30 21 C 1.238 -2.921 -0.575 0
M  V30 22 C 1.073 -1.635 -0.068 0
M  V30 23 H -5.121 -2.173 -0.181 0
M  V30 24 H -4.543 -0.528 1.094 0
M  V30 25 H -4.178 0.794 0.035 0
M  V30 26 H -2.017 -0.761 1.508 0
M  V30 27 H -2.789 0.609 2.243 0
M  V30 28 H -2.87 2.614 0.722 0
M  V30 29 H 0.222 1.164 -0.49 0
M  V30 30 H -0.08 -0.823 2.708 0
M  V30 31 H 1.4 -0.398 4.639 0
M  V30 32 H 3.039 1.451 4.549 0
M  V30 33 H 3.201 2.883 2.539 0
M  V30 34 H 1.714 2.473 0.613 0
M  V30 35 H -2.169 0.33 -1.662 0
M  V30 36 H -2.581 -1.052 -2.606 0
M  V30 37 H -1.664 -3.203 -2.276 0
M  V30 38 H 0.367 -4.481 -1.766 0
M  V30 39 H 2.14 -3.476 -0.359 0
M  V30 40 H 1.878 -1.23 0.528 0
M  V30 END ATOM
M  V30 BEGIN BOND
M  V30 1 2 1 2
M  V30 2 1 2 3
M  V30 3 1 2 23
M  V30 4 1 3 4
M  V30 5 1 3 18
M  V30 6 1 4 5
M  V30 7 1 4 24
M  V30 8 1 4 25
M  V30 9 1 5 6
M  V30 10 1 5 26
M  V30 11 1 5 27
M  V30 12 1 6 7
M  V30 13 1 6 9
M  V30 14 2 7 8
M  V30 15 1 7 28
M  V30 16 1 9 10
M  V30 17 1 9 16
M  V30 18 1 9 29
M  V30 19 2 10 11
M  V30 20 1 10 15
M  V30 21 1 11 12
M  V30 22 1 11 30
M  V30 23 2 12 13
M  V30 24 1 12 31
M  V30 25 1 13 14
M  V30 26 1 13 32
M  V30 27 2 14 15
M  V30 28 1 14 33
M  V30 29 1 15 34
M  V30 30 2 16 17
M  V30 31 1 16 22
M  V30 32 1 17 18
M  V30 33 1 17 19
M  V30 34 1 18 35
M  V30 35 1 18 36
M  V30 36 2 19 20
M  V30 37 1 19 37
M  V30 38 1 20 21
M  V30 39 1 20 38
M  V30 40 2 21 22
M  V30 41 1 21 39
M  V30 42 1 22 40
M  V30 END BOND
M  V30 END CTAB
M  END
