
     RDKit          3D

 38 40  0  0  0  0  0  0  0  0999 V2000
   -0.3498    4.4300    2.4975 C   0  0  0  0  0  0  0  0  0  0  0  0
   -0.6061    3.1086    1.8309 C   0  0  0  0  0  0  0  0  0  0  0  0
   -1.8330    2.5697    1.6313 C   0  0  0  0  0  0  0  0  0  0  0  0
   -3.0286    3.1964    1.9959 N   0  0  0  0  0  0  0  0  0  0  0  0
   -2.0250    1.2031    0.9584 C   0  0  0  0  0  0  0  0  0  0  0  0
   -3.1491    0.7734    0.7129 O   0  0  0  0  0  0  0  0  0  0  0  0
   -0.8001    0.5109    0.6162 C   0  0  0  0  0  0  0  0  0  0  0  0
    0.4396    1.0874    0.8385 C   0  0  0  0  0  0  0  0  0  0  0  0
    1.3573    0.2013    0.4056 N   0  0  0  0  0  0  0  0  0  0  0  0
    2.8081    0.1758    0.3458 C   0  0  0  0  0  0  0  0  0  0  0  0
    3.0919   -1.3282    0.0963 C   0  0  2  0  0  0  0  0  0  0  0  0
    4.3015   -1.6013   -0.6830 N   0  0  0  0  0  0  0  0  0  0  0  0
    1.7899   -1.8859   -0.5634 C   0  0  0  0  0  0  0  0  0  0  0  0
    0.7654   -0.9237   -0.0891 C   0  0  0  0  0  0  0  0  0  0  0  0
   -0.6026   -0.7878    0.0157 C   0  0  0  0  0  0  0  0  0  0  0  0
   -1.6911   -1.7389   -0.3844 C   0  0  0  0  0  0  0  0  0  0  0  0
   -1.1913   -2.9064   -1.0548 O   0  0  0  0  0  0  0  0  0  0  0  0
   -1.1538   -4.0312   -0.3137 C   0  0  0  0  0  0  0  0  0  0  0  0
   -0.6707   -5.0507   -1.0592 N   0  0  0  0  0  0  0  0  0  0  0  0
   -1.4853   -4.1603    0.8527 O   0  0  0  0  0  0  0  0  0  0  0  0
    0.6469    2.3825    1.4146 C   0  0  0  0  0  0  0  0  0  0  0  0
    1.7537    2.8887    1.5651 O   0  0  0  0  0  0  0  0  0  0  0  0
    0.3224    4.3028    3.3531 H   0  0  0  0  0  0  0  0  0  0  0  0
   -1.2598    4.9028    2.8776 H   0  0  0  0  0  0  0  0  0  0  0  0
    0.1140    5.1274    1.7917 H   0  0  0  0  0  0  0  0  0  0  0  0
   -3.8275    2.7310    1.5517 H   0  0  0  0  0  0  0  0  0  0  0  0
   -3.0332    4.1975    1.8243 H   0  0  0  0  0  0  0  0  0  0  0  0
    3.2262    0.5306    1.2908 H   0  0  0  0  0  0  0  0  0  0  0  0
    3.1113    0.8153   -0.4891 H   0  0  0  0  0  0  0  0  0  0  0  0
    3.2058   -1.8175    1.0736 H   0  0  0  0  0  0  0  0  0  0  0  0
    5.1085   -1.1726   -0.2299 H   0  0  0  0  0  0  0  0  0  0  0  0
    4.2285   -1.1668   -1.6030 H   0  0  0  0  0  0  0  0  0  0  0  0
    1.8473   -1.8598   -1.6574 H   0  0  0  0  0  0  0  0  0  0  0  0
    1.5988   -2.9118   -0.2380 H   0  0  0  0  0  0  0  0  0  0  0  0
   -2.3485   -1.2355   -1.1027 H   0  0  0  0  0  0  0  0  0  0  0  0
   -2.3111   -1.9928    0.4836 H   0  0  0  0  0  0  0  0  0  0  0  0
   -0.5249   -5.9466   -0.6198 H   0  0  0  0  0  0  0  0  0  0  0  0
   -0.3424   -4.8738   -1.9953 H   0  0  0  0  0  0  0  0  0  0  0  0
  1  2  1  0
  2  3  2  0
  3  4  1  0
  3  5  1  0
  5  6  2  0
  5  7  1  0
  7  8  2  0
  8  9  1  0
  9 10  1  0
 10 11  1  0
 11 12  1  6
 11 13  1  0
 13 14  1  0
 14 15  2  0
 15 16  1  0
 16 17  1  0
 17 18  1  0
 18 19  1  0
 18 20  2  0
  8 21  1  0
 21 22  2  0
 21  2  1  0
 15  7  1  0
 14  9  1  0
  1 23  1  0
  1 24  1  0
  1 25  1  0
  4 26  1  0
  4 27  1  0
 10 28  1  0
 10 29  1  0
 11 30  1  0
 12 31  1  0
 12 32  1  0
 13 33  1  0
 13 34  1  0
 16 35  1  0
 16 36  1  0
 19 37  1  0
 19 38  1  0
M  END

