
     RDKit          3D

  0  0  0  0  0  0  0  0  0  0999 V3000
M  V30 BEGIN CTAB
M  V30 COUNTS 16 16 0 0 0
M  V30 BEGIN ATOM
M  V30 1 Y -2.4530 1.1280 -1.6540 0
M  V30 2 N -1.6550 0.3690 -0.8180 0
M  V30 3 C -0.4090 0.5830 -0.6770 0
M  V30 4 C 0.5070 1.6910 -1.2890 0
M  V30 5 N 1.7710 1.8720 -0.5320 0
M  V30 6 C 2.4690 0.5990 -0.2240 0
M  V30 7 C 1.5120 -0.4860 0.3660 0
M  V30 8 N 0.1750 -0.3810 0.0980 0
M  V30 9 N 1.7660 -1.5350 1.0390 0
M  V30 10 Y 3.0550 -1.9380 1.3360 0
M  V30 11 H 0.7050 1.4380 -2.3320 0
M  V30 12 H -0.0310 2.6400 -1.2860 0
M  V30 13 H 2.3860 2.5640 -0.9550 0
M  V30 14 H 2.9510 0.1880 -1.1130 0
M  V30 15 H 3.2580 0.8090 0.5000 0
M  V30 16 H -0.4210 -1.0930 0.4640 0
M  V30 END ATOM
M  V30 BEGIN BOND
M  V30 0 1 1 2
M  V30 1 2 2 3
M  V30 2 1 3 4
M  V30 3 1 3 8
M  V30 4 1 4 5
M  V30 5 1 4 11
M  V30 6 1 4 12
M  V30 7 1 5 6
M  V30 8 1 5 13
M  V30 9 1 6 7
M  V30 10 1 6 14
M  V30 11 1 6 15
M  V30 12 1 7 8
M  V30 13 2 7 9
M  V30 14 1 8 16
M  V30 15 1 9 10
M  V30 END BOND
M  V30 END CTAB
M  END

$$$$
